/*---------------------------------------------------------------------------*\
| =========                 |                                                 |
| \\      /  F ield         | OpenFOAM: The Open Source CFD Toolbox           |
|  \\    /   O peration     | Version:  v1912                                 |
|   \\  /    A nd           | Website:  www.openfoam.com                      |
|    \\/     M anipulation  |                                                 |
\*---------------------------------------------------------------------------*/
Build  : _f3950763fe-20191219 OPENFOAM=1912
Arch   : "LSB;label=32;scalar=64"
Exec   : simpleFoam
Date   : Jun 02 2020
Time   : 15:26:11
Host   : mx
PID    : 6785
I/O    : uncollated
Case   : /home/max/OpenFOAM/max-v1912/run/turbulentFlatPlate_1
nProcs : 1
trapFpe: Floating point exception trapping enabled (FOAM_SIGFPE).
fileModificationChecking : Monitoring run-time modified files using timeStampMaster (fileModificationSkew 10)
allowSystemOperations : Allowing user-supplied system call operations

// * * * * * * * * * * * * * * * * * * * * * * * * * * * * * * * * * * * * * //
Create time

Create mesh for time = 0


SIMPLE: no convergence criteria found. Calculations will run for 1000 steps.

Reading field p

Reading field U

Reading/calculating face flux field phi

Selecting incompressible transport model Newtonian
Selecting turbulence model type RAS
Selecting RAS turbulence model kOmegaSST
--> FOAM Warning : 
    From function Foam::Field<Type>::Field(const Foam::word&, const Foam::dictionary&, Foam::label) [with Type = double; Foam::label = int]
    in file /home/max/OpenFOAM/OpenFOAM-v1912/src/OpenFOAM/lnInclude/Field.C at line 239
    Reading "/home/max/OpenFOAM/max-v1912/run/turbulentFlatPlate_1/0/nut.boundaryField.bottomWall"
    Expected keyword 'uniform' or 'nonuniform', assuming deprecated Field format from Foam version 2.0.
Selecting patchDistMethod meshWave
--> FOAM Warning : 
    From function Foam::Field<Type>::Field(const Foam::word&, const Foam::dictionary&, Foam::label) [with Type = double; Foam::label = int]
    in file /home/max/OpenFOAM/OpenFOAM-v1912/src/OpenFOAM/lnInclude/Field.C at line 239
    Reading "/home/max/OpenFOAM/max-v1912/run/turbulentFlatPlate_1/0/k.boundaryField.bottomWall"
    Expected keyword 'uniform' or 'nonuniform', assuming deprecated Field format from Foam version 2.0.
--> FOAM Warning : 
    From function Foam::Field<Type>::Field(const Foam::word&, const Foam::dictionary&, Foam::label) [with Type = double; Foam::label = int]
    in file /home/max/OpenFOAM/OpenFOAM-v1912/src/OpenFOAM/lnInclude/Field.C at line 239
    Reading "/home/max/OpenFOAM/max-v1912/run/turbulentFlatPlate_1/0/omega.boundaryField.bottomWall"
    Expected keyword 'uniform' or 'nonuniform', assuming deprecated Field format from Foam version 2.0.
bounding k, min: 0 max: 0.00108 average: 0.00108
RAS
{
    RASModel        kOmegaSST;
    turbulence      on;
    printCoeffs     on;
    alphaK1         0.85;
    alphaK2         1;
    alphaOmega1     0.5;
    alphaOmega2     0.856;
    gamma1          0.55555556;
    gamma2          0.44;
    beta1           0.075;
    beta2           0.0828;
    betaStar        0.09;
    a1              0.31;
    b1              1;
    c1              10;
    F3              false;
    decayControl    false;
    kInf            0;
    omegaInf        0;
}

No MRF models present

No finite volume options present

Starting time loop

Time = 1

smoothSolver:  Solving for Ux, Initial residual = 1, Final residual = 0.060508656, No Iterations 2
smoothSolver:  Solving for Uy, Initial residual = 1, Final residual = 0.085610059, No Iterations 1
GAMG:  Solving for p, Initial residual = 1, Final residual = 0.068779117, No Iterations 8
time step continuity errors : sum local = 3.9871647e-06, global = 7.5158771e-07, cumulative = 7.5158771e-07
DILUPBiCGStab:  Solving for omega, Initial residual = 1, Final residual = 3.3600656e-05, No Iterations 1
bounding omega, min: -5505910.5 max: 9e+09 average: 47912792
smoothSolver:  Solving for k, Initial residual = 1, Final residual = 0.01153243, No Iterations 1
bounding k, min: 0 max: 0.0085587264 average: 0.0012970125
ExecutionTime = 0.31 s  ClockTime = 0 s

Time = 2

smoothSolver:  Solving for Ux, Initial residual = 0.10071601, Final residual = 0.0093395717, No Iterations 3
smoothSolver:  Solving for Uy, Initial residual = 0.18425401, Final residual = 0.00837921, No Iterations 1
GAMG:  Solving for p, Initial residual = 0.0063523377, Final residual = 0.00035413411, No Iterations 4
time step continuity errors : sum local = 1.613417e-05, global = 1.2258587e-06, cumulative = 1.9774465e-06
DILUPBiCGStab:  Solving for omega, Initial residual = 0.50952272, Final residual = 8.7600428e-08, No Iterations 1
smoothSolver:  Solving for k, Initial residual = 0.2010756, Final residual = 0.008400384, No Iterations 1
bounding k, min: 0 max: 0.0036830935 average: 0.0011519209
ExecutionTime = 0.38 s  ClockTime = 0 s

Time = 3

smoothSolver:  Solving for Ux, Initial residual = 0.038911056, Final residual = 0.0024291445, No Iterations 5
smoothSolver:  Solving for Uy, Initial residual = 0.11207896, Final residual = 0.0064708283, No Iterations 1
GAMG:  Solving for p, Initial residual = 0.0098207443, Final residual = 0.0007020051, No Iterations 3
time step continuity errors : sum local = 2.7148904e-05, global = 5.0666303e-06, cumulative = 7.0440768e-06
DILUPBiCGStab:  Solving for omega, Initial residual = 0.044384405, Final residual = 2.5865773e-07, No Iterations 1
smoothSolver:  Solving for k, Initial residual = 0.11218462, Final residual = 0.0025535113, No Iterations 2
bounding k, min: 0 max: 0.0022384434 average: 0.0010932062
ExecutionTime = 0.43 s  ClockTime = 0 s

Time = 4

smoothSolver:  Solving for Ux, Initial residual = 0.022680481, Final residual = 0.0018439661, No Iterations 5
smoothSolver:  Solving for Uy, Initial residual = 0.08092252, Final residual = 0.0049848381, No Iterations 1
GAMG:  Solving for p, Initial residual = 0.011411103, Final residual = 0.00088560331, No Iterations 3
time step continuity errors : sum local = 3.2488121e-05, global = 6.2668966e-06, cumulative = 1.3310973e-05
DILUPBiCGStab:  Solving for omega, Initial residual = 0.0071604497, Final residual = 8.8996972e-08, No Iterations 1
smoothSolver:  Solving for k, Initial residual = 0.10563899, Final residual = 0.0037025612, No Iterations 2
bounding k, min: 0 max: 0.001600882 average: 0.0010631599
ExecutionTime = 0.49 s  ClockTime = 0 s

Time = 5

smoothSolver:  Solving for Ux, Initial residual = 0.016048726, Final residual = 0.001483269, No Iterations 5
smoothSolver:  Solving for Uy, Initial residual = 0.065462036, Final residual = 0.0039698283, No Iterations 1
GAMG:  Solving for p, Initial residual = 0.013580451, Final residual = 0.00090313569, No Iterations 3
time step continuity errors : sum local = 3.0313485e-05, global = 6.2341414e-06, cumulative = 1.9545115e-05
DILUPBiCGStab:  Solving for omega, Initial residual = 0.0027678676, Final residual = 3.0598547e-08, No Iterations 1
smoothSolver:  Solving for k, Initial residual = 0.081894062, Final residual = 0.0038491146, No Iterations 2
bounding k, min: 0 max: 0.0012567497 average: 0.0010442671
ExecutionTime = 0.55 s  ClockTime = 0 s

Time = 6

smoothSolver:  Solving for Ux, Initial residual = 0.01243673, Final residual = 0.0012374013, No Iterations 5
smoothSolver:  Solving for Uy, Initial residual = 0.055459682, Final residual = 0.0032445179, No Iterations 1
GAMG:  Solving for p, Initial residual = 0.015139617, Final residual = 0.00084416827, No Iterations 3
time step continuity errors : sum local = 2.6286705e-05, global = 5.1178635e-06, cumulative = 2.4662978e-05
DILUPBiCGStab:  Solving for omega, Initial residual = 0.001081799, Final residual = 1.642798e-08, No Iterations 1
smoothSolver:  Solving for k, Initial residual = 0.051565887, Final residual = 0.0025250116, No Iterations 2
bounding k, min: 0 max: 0.0010859423 average: 0.0010304049
ExecutionTime = 0.61 s  ClockTime = 0 s

Time = 7

smoothSolver:  Solving for Ux, Initial residual = 0.01014336, Final residual = 0.00068371284, No Iterations 6
smoothSolver:  Solving for Uy, Initial residual = 0.048371247, Final residual = 0.0027120427, No Iterations 1
GAMG:  Solving for p, Initial residual = 0.016127091, Final residual = 0.00076856264, No Iterations 3
time step continuity errors : sum local = 2.2858085e-05, global = 2.4048421e-06, cumulative = 2.706782e-05
DILUPBiCGStab:  Solving for omega, Initial residual = 0.00047045893, Final residual = 1.2735458e-08, No Iterations 1
smoothSolver:  Solving for k, Initial residual = 0.036877309, Final residual = 0.00180944, No Iterations 2
bounding k, min: 0 max: 0.0010897617 average: 0.0010198025
ExecutionTime = 0.67 s  ClockTime = 1 s

Time = 8

smoothSolver:  Solving for Ux, Initial residual = 0.0085039391, Final residual = 0.00059531293, No Iterations 6
smoothSolver:  Solving for Uy, Initial residual = 0.043268783, Final residual = 0.0023225106, No Iterations 1
GAMG:  Solving for p, Initial residual = 0.016475925, Final residual = 0.0015953272, No Iterations 2
time step continuity errors : sum local = 4.7096645e-05, global = -7.1527806e-07, cumulative = 2.6352542e-05
DILUPBiCGStab:  Solving for omega, Initial residual = 0.00019151119, Final residual = 1.2510805e-08, No Iterations 1
smoothSolver:  Solving for k, Initial residual = 0.029523866, Final residual = 0.0014552608, No Iterations 2
bounding k, min: 0 max: 0.0010941017 average: 0.0010114148
ExecutionTime = 0.72 s  ClockTime = 1 s

Time = 9

smoothSolver:  Solving for Ux, Initial residual = 0.0073013582, Final residual = 0.00052589182, No Iterations 6
smoothSolver:  Solving for Uy, Initial residual = 0.039171079, Final residual = 0.0020119604, No Iterations 1
GAMG:  Solving for p, Initial residual = 0.016800069, Final residual = 0.00092683812, No Iterations 3
time step continuity errors : sum local = 2.7839624e-05, global = -1.3314433e-06, cumulative = 2.5021099e-05
DILUPBiCGStab:  Solving for omega, Initial residual = 9.9472831e-05, Final residual = 1.2786533e-08, No Iterations 1
smoothSolver:  Solving for k, Initial residual = 0.025855007, Final residual = 0.0011987529, No Iterations 2
bounding k, min: 0 max: 0.0010987901 average: 0.0010045758
ExecutionTime = 0.78 s  ClockTime = 1 s

Time = 10

smoothSolver:  Solving for Ux, Initial residual = 0.0063823608, Final residual = 0.00046993675, No Iterations 6
smoothSolver:  Solving for Uy, Initial residual = 0.036859213, Final residual = 0.0017658329, No Iterations 1
GAMG:  Solving for p, Initial residual = 0.01625681, Final residual = 0.0015811344, No Iterations 2
time step continuity errors : sum local = 4.9031854e-05, global = -2.8607895e-06, cumulative = 2.216031e-05
DILUPBiCGStab:  Solving for omega, Initial residual = 4.5705075e-05, Final residual = 1.3532571e-08, No Iterations 1
smoothSolver:  Solving for k, Initial residual = 0.022459919, Final residual = 0.0011166399, No Iterations 2
bounding k, min: 0 max: 0.0011041424 average: 0.00099940381
ExecutionTime = 0.84 s  ClockTime = 1 s

Time = 11

smoothSolver:  Solving for Ux, Initial residual = 0.0056560009, Final residual = 0.00042388875, No Iterations 6
smoothSolver:  Solving for Uy, Initial residual = 0.033710973, Final residual = 0.0015626959, No Iterations 1
GAMG:  Solving for p, Initial residual = 0.01617501, Final residual = 0.00085202159, No Iterations 3
time step continuity errors : sum local = 2.6982441e-05, global = -1.7040893e-06, cumulative = 2.045622e-05
DILUPBiCGStab:  Solving for omega, Initial residual = 3.2436993e-05, Final residual = 1.3461128e-08, No Iterations 1
smoothSolver:  Solving for k, Initial residual = 0.021663932, Final residual = 0.00096071744, No Iterations 2
bounding k, min: 0 max: 0.0011095457 average: 0.00099509682
ExecutionTime = 0.9 s  ClockTime = 1 s

Time = 12

smoothSolver:  Solving for Ux, Initial residual = 0.0050685099, Final residual = 0.00038534709, No Iterations 6
smoothSolver:  Solving for Uy, Initial residual = 0.031665526, Final residual = 0.0013971512, No Iterations 1
GAMG:  Solving for p, Initial residual = 0.015309327, Final residual = 0.0014172503, No Iterations 2
time step continuity errors : sum local = 4.6281258e-05, global = -1.5979322e-06, cumulative = 1.8858288e-05
DILUPBiCGStab:  Solving for omega, Initial residual = 1.8877037e-05, Final residual = 1.3256112e-08, No Iterations 1
smoothSolver:  Solving for k, Initial residual = 0.020333974, Final residual = 0.00099403774, No Iterations 2
bounding k, min: 0 max: 0.0011265642 average: 0.00099178991
ExecutionTime = 0.95 s  ClockTime = 1 s

Time = 13

smoothSolver:  Solving for Ux, Initial residual = 0.0045825634, Final residual = 0.000352627, No Iterations 6
smoothSolver:  Solving for Uy, Initial residual = 0.029142148, Final residual = 0.0012545279, No Iterations 1
GAMG:  Solving for p, Initial residual = 0.015157342, Final residual = 0.00076639707, No Iterations 3
time step continuity errors : sum local = 2.5451663e-05, global = -6.2939583e-07, cumulative = 1.8228892e-05
DILUPBiCGStab:  Solving for omega, Initial residual = 1.740183e-05, Final residual = 1.3066831e-08, No Iterations 1
smoothSolver:  Solving for k, Initial residual = 0.019726562, Final residual = 0.00093606823, No Iterations 2
bounding k, min: 0 max: 0.0011482193 average: 0.00098908552
ExecutionTime = 1.01 s  ClockTime = 1 s

Time = 14

smoothSolver:  Solving for Ux, Initial residual = 0.0041748633, Final residual = 0.00032451357, No Iterations 6
smoothSolver:  Solving for Uy, Initial residual = 0.027418902, Final residual = 0.0011348193, No Iterations 1
GAMG:  Solving for p, Initial residual = 0.01450121, Final residual = 0.0013273278, No Iterations 2
time step continuity errors : sum local = 4.4712871e-05, global = -5.1338039e-07, cumulative = 1.7715512e-05
DILUPBiCGStab:  Solving for omega, Initial residual = 1.2731447e-05, Final residual = 1.2559908e-08, No Iterations 1
smoothSolver:  Solving for k, Initial residual = 0.018679051, Final residual = 0.00088180162, No Iterations 2
bounding k, min: 0 max: 0.0011753779 average: 0.00098701158
ExecutionTime = 1.07 s  ClockTime = 1 s

Time = 15

smoothSolver:  Solving for Ux, Initial residual = 0.0038272374, Final residual = 0.0003001056, No Iterations 6
smoothSolver:  Solving for Uy, Initial residual = 0.02534652, Final residual = 0.001031791, No Iterations 1
GAMG:  Solving for p, Initial residual = 0.014384263, Final residual = 0.00076121673, No Iterations 3
time step continuity errors : sum local = 2.6014398e-05, global = -7.5936868e-08, cumulative = 1.7639575e-05
DILUPBiCGStab:  Solving for omega, Initial residual = 1.2581094e-05, Final residual = 1.2456992e-08, No Iterations 1
smoothSolver:  Solving for k, Initial residual = 0.017577118, Final residual = 0.00085526081, No Iterations 2
bounding k, min: 0 max: 0.0012065046 average: 0.00098537033
ExecutionTime = 1.13 s  ClockTime = 1 s

Time = 16

smoothSolver:  Solving for Ux, Initial residual = 0.0035282725, Final residual = 0.00027872837, No Iterations 6
smoothSolver:  Solving for Uy, Initial residual = 0.023861535, Final residual = 0.00094313163, No Iterations 1
GAMG:  Solving for p, Initial residual = 0.013778997, Final residual = 0.0012709708, No Iterations 2
time step continuity errors : sum local = 4.3983914e-05, global = -5.6472952e-07, cumulative = 1.7074845e-05
DILUPBiCGStab:  Solving for omega, Initial residual = 1.0722348e-05, Final residual = 1.1695758e-08, No Iterations 1
smoothSolver:  Solving for k, Initial residual = 0.017142347, Final residual = 0.00083716251, No Iterations 2
bounding k, min: 0 max: 0.0012414161 average: 0.00098424542
ExecutionTime = 1.18 s  ClockTime = 1 s

Time = 17

smoothSolver:  Solving for Ux, Initial residual = 0.0032676409, Final residual = 0.0002598589, No Iterations 6
smoothSolver:  Solving for Uy, Initial residual = 0.022070728, Final residual = 0.00086659954, No Iterations 1
GAMG:  Solving for p, Initial residual = 0.013691215, Final residual = 0.00073758999, No Iterations 3
time step continuity errors : sum local = 2.5854545e-05, global = -1.5531105e-07, cumulative = 1.6919534e-05
DILUPBiCGStab:  Solving for omega, Initial residual = 1.0129026e-05, Final residual = 1.1594167e-08, No Iterations 1
smoothSolver:  Solving for k, Initial residual = 0.01669824, Final residual = 0.0007591843, No Iterations 2
bounding k, min: 0 max: 0.0012800513 average: 0.0009834749
ExecutionTime = 1.24 s  ClockTime = 1 s

Time = 18

smoothSolver:  Solving for Ux, Initial residual = 0.0030394258, Final residual = 0.00024308741, No Iterations 6
smoothSolver:  Solving for Uy, Initial residual = 0.020730312, Final residual = 0.00079934154, No Iterations 1
GAMG:  Solving for p, Initial residual = 0.013008868, Final residual = 0.0012078016, No Iterations 2
time step continuity errors : sum local = 4.296535e-05, global = -9.9592862e-07, cumulative = 1.5923606e-05
DILUPBiCGStab:  Solving for omega, Initial residual = 9.1309594e-06, Final residual = 1.0941674e-08, No Iterations 1
smoothSolver:  Solving for k, Initial residual = 0.015958744, Final residual = 0.00083281663, No Iterations 2
bounding k, min: 0 max: 0.001321144 average: 0.00098327894
ExecutionTime = 1.29 s  ClockTime = 1 s

Time = 19

smoothSolver:  Solving for Ux, Initial residual = 0.0028369507, Final residual = 0.0002280821, No Iterations 6
smoothSolver:  Solving for Uy, Initial residual = 0.019190593, Final residual = 0.00074011856, No Iterations 1
GAMG:  Solving for p, Initial residual = 0.012951756, Final residual = 0.00070203497, No Iterations 3
time step continuity errors : sum local = 2.5275362e-05, global = -4.0683328e-07, cumulative = 1.5516772e-05
DILUPBiCGStab:  Solving for omega, Initial residual = 8.3688802e-06, Final residual = 1.0561816e-08, No Iterations 1
smoothSolver:  Solving for k, Initial residual = 0.015223283, Final residual = 0.00078500739, No Iterations 2
bounding k, min: 0 max: 0.001364532 average: 0.00098354265
ExecutionTime = 1.36 s  ClockTime = 1 s

Time = 20

smoothSolver:  Solving for Ux, Initial residual = 0.0026572486, Final residual = 0.00021458962, No Iterations 6
smoothSolver:  Solving for Uy, Initial residual = 0.018028653, Final residual = 0.00068697626, No Iterations 1
GAMG:  Solving for p, Initial residual = 0.01223314, Final residual = 0.0011615062, No Iterations 2
time step continuity errors : sum local = 4.2601834e-05, global = -1.2629976e-06, cumulative = 1.4253775e-05
DILUPBiCGStab:  Solving for omega, Initial residual = 7.7788873e-06, Final residual = 1.0377925e-08, No Iterations 1
smoothSolver:  Solving for k, Initial residual = 0.014984534, Final residual = 0.00072786667, No Iterations 2
bounding k, min: 0 max: 0.0014100262 average: 0.00098407856
ExecutionTime = 1.41 s  ClockTime = 1 s

Time = 21

smoothSolver:  Solving for Ux, Initial residual = 0.0024957166, Final residual = 0.00020239701, No Iterations 6
smoothSolver:  Solving for Uy, Initial residual = 0.016724841, Final residual = 0.00063980694, No Iterations 1
GAMG:  Solving for p, Initial residual = 0.012165082, Final residual = 0.00066608251, No Iterations 3
time step continuity errors : sum local = 2.4718721e-05, global = -5.8784432e-07, cumulative = 1.3665931e-05
DILUPBiCGStab:  Solving for omega, Initial residual = 7.2170228e-06, Final residual = 1.0031744e-08, No Iterations 1
smoothSolver:  Solving for k, Initial residual = 0.014031125, Final residual = 0.00073470611, No Iterations 2
bounding k, min: 0 max: 0.0014609793 average: 0.00098514077
ExecutionTime = 1.47 s  ClockTime = 1 s

Time = 22

smoothSolver:  Solving for Ux, Initial residual = 0.0023508066, Final residual = 0.00019132464, No Iterations 6
smoothSolver:  Solving for Uy, Initial residual = 0.01576837, Final residual = 0.0005965375, No Iterations 1
GAMG:  Solving for p, Initial residual = 0.011367353, Final residual = 0.0011191885, No Iterations 2
time step continuity errors : sum local = 4.2582698e-05, global = -1.1839504e-06, cumulative = 1.248198e-05
DILUPBiCGStab:  Solving for omega, Initial residual = 6.6802218e-06, Final residual = 9.6657818e-09, No Iterations 1
smoothSolver:  Solving for k, Initial residual = 0.01376093, Final residual = 0.00071206466, No Iterations 2
bounding k, min: 0 max: 0.0015147093 average: 0.00098661955
ExecutionTime = 1.52 s  ClockTime = 1 s

Time = 23

smoothSolver:  Solving for Ux, Initial residual = 0.0022190576, Final residual = 0.00018123233, No Iterations 6
smoothSolver:  Solving for Uy, Initial residual = 0.014671121, Final residual = 0.00055890779, No Iterations 1
GAMG:  Solving for p, Initial residual = 0.01128615, Final residual = 0.00063440226, No Iterations 3
time step continuity errors : sum local = 2.440667e-05, global = -6.550249e-07, cumulative = 1.1826955e-05
DILUPBiCGStab:  Solving for omega, Initial residual = 6.1948066e-06, Final residual = 9.2840531e-09, No Iterations 1
smoothSolver:  Solving for k, Initial residual = 0.012874385, Final residual = 0.00067248648, No Iterations 2
bounding k, min: 0 max: 0.0015705692 average: 0.0009885643
ExecutionTime = 1.58 s  ClockTime = 1 s

Time = 24

smoothSolver:  Solving for Ux, Initial residual = 0.0020999287, Final residual = 0.00017199896, No Iterations 6
smoothSolver:  Solving for Uy, Initial residual = 0.013911462, Final residual = 0.00052322401, No Iterations 1
GAMG:  Solving for p, Initial residual = 0.010477758, Final residual = 0.00048603342, No Iterations 3
time step continuity errors : sum local = 1.9211705e-05, global = -6.259736e-07, cumulative = 1.1200982e-05
DILUPBiCGStab:  Solving for omega, Initial residual = 5.8013049e-06, Final residual = 8.7688278e-09, No Iterations 1
smoothSolver:  Solving for k, Initial residual = 0.01265681, Final residual = 0.00070604489, No Iterations 2
bounding k, min: 0 max: 0.0016283708 average: 0.00099097159
ExecutionTime = 1.64 s  ClockTime = 1 s

Time = 25

smoothSolver:  Solving for Ux, Initial residual = 0.0019908055, Final residual = 0.00016351921, No Iterations 6
smoothSolver:  Solving for Uy, Initial residual = 0.013059549, Final residual = 0.00049179718, No Iterations 1
GAMG:  Solving for p, Initial residual = 0.0099113331, Final residual = 0.00044994307, No Iterations 3
time step continuity errors : sum local = 1.8082962e-05, global = -7.4457417e-07, cumulative = 1.0456408e-05
DILUPBiCGStab:  Solving for omega, Initial residual = 5.4233852e-06, Final residual = 8.4845812e-09, No Iterations 1
smoothSolver:  Solving for k, Initial residual = 0.012165357, Final residual = 0.00061977511, No Iterations 2
bounding k, min: 0 max: 0.0016881698 average: 0.00099381989
ExecutionTime = 1.7 s  ClockTime = 2 s

Time = 26

smoothSolver:  Solving for Ux, Initial residual = 0.0018908523, Final residual = 0.00015571088, No Iterations 6
smoothSolver:  Solving for Uy, Initial residual = 0.012312361, Final residual = 0.00046323077, No Iterations 1
GAMG:  Solving for p, Initial residual = 0.0094774599, Final residual = 0.00044190853, No Iterations 3
time step continuity errors : sum local = 1.8075186e-05, global = -8.5928027e-07, cumulative = 9.5971273e-06
DILUPBiCGStab:  Solving for omega, Initial residual = 5.0495196e-06, Final residual = 8.084187e-09, No Iterations 1
smoothSolver:  Solving for k, Initial residual = 0.011925033, Final residual = 0.00065342264, No Iterations 2
bounding k, min: 0 max: 0.0017501583 average: 0.00099707508
ExecutionTime = 1.77 s  ClockTime = 2 s

Time = 27

smoothSolver:  Solving for Ux, Initial residual = 0.0017990414, Final residual = 0.00014849684, No Iterations 6
smoothSolver:  Solving for Uy, Initial residual = 0.01174931, Final residual = 0.00043718973, No Iterations 1
GAMG:  Solving for p, Initial residual = 0.0090484596, Final residual = 0.00043700035, No Iterations 3
time step continuity errors : sum local = 1.8274059e-05, global = -9.0592384e-07, cumulative = 8.6912034e-06
DILUPBiCGStab:  Solving for omega, Initial residual = 4.7630658e-06, Final residual = 7.8308247e-09, No Iterations 1
smoothSolver:  Solving for k, Initial residual = 0.011745627, Final residual = 0.00063627125, No Iterations 2
bounding k, min: 0 max: 0.0018143714 average: 0.0010007914
ExecutionTime = 1.82 s  ClockTime = 2 s

Time = 28

smoothSolver:  Solving for Ux, Initial residual = 0.0017144441, Final residual = 0.00014181551, No Iterations 6
smoothSolver:  Solving for Uy, Initial residual = 0.011239294, Final residual = 0.00041326123, No Iterations 1
GAMG:  Solving for p, Initial residual = 0.0086112782, Final residual = 0.00042672502, No Iterations 3
time step continuity errors : sum local = 1.8270273e-05, global = -9.2914764e-07, cumulative = 7.7620558e-06
DILUPBiCGStab:  Solving for omega, Initial residual = 4.513588e-06, Final residual = 7.5294348e-09, No Iterations 1
smoothSolver:  Solving for k, Initial residual = 0.011279172, Final residual = 0.00064018971, No Iterations 2
bounding k, min: 0 max: 0.0018809428 average: 0.0010049519
ExecutionTime = 1.89 s  ClockTime = 2 s

Time = 29

smoothSolver:  Solving for Ux, Initial residual = 0.0016362385, Final residual = 0.00013561161, No Iterations 6
smoothSolver:  Solving for Uy, Initial residual = 0.010757133, Final residual = 0.00039119731, No Iterations 1
GAMG:  Solving for p, Initial residual = 0.0081873523, Final residual = 0.0004127171, No Iterations 3
time step continuity errors : sum local = 1.8086864e-05, global = -9.5251403e-07, cumulative = 6.8095418e-06
DILUPBiCGStab:  Solving for omega, Initial residual = 4.2697744e-06, Final residual = 7.3138072e-09, No Iterations 1
smoothSolver:  Solving for k, Initial residual = 0.011140518, Final residual = 0.00059096533, No Iterations 2
bounding k, min: 0 max: 0.001950009 average: 0.0010095116
ExecutionTime = 1.95 s  ClockTime = 2 s

Time = 30

smoothSolver:  Solving for Ux, Initial residual = 0.0015637322, Final residual = 0.00012983695, No Iterations 6
smoothSolver:  Solving for Uy, Initial residual = 0.010318095, Final residual = 0.00037084358, No Iterations 1
GAMG:  Solving for p, Initial residual = 0.0077814183, Final residual = 0.00039771264, No Iterations 3
time step continuity errors : sum local = 1.7828257e-05, global = -9.8437207e-07, cumulative = 5.8251697e-06
DILUPBiCGStab:  Solving for omega, Initial residual = 4.0136441e-06, Final residual = 6.969343e-09, No Iterations 1
smoothSolver:  Solving for k, Initial residual = 0.010829662, Final residual = 0.00060616762, No Iterations 2
bounding k, min: 0 max: 0.0020219111 average: 0.0010145629
ExecutionTime = 2.01 s  ClockTime = 2 s

Time = 31

smoothSolver:  Solving for Ux, Initial residual = 0.0014963577, Final residual = 0.00012445116, No Iterations 6
smoothSolver:  Solving for Uy, Initial residual = 0.0099257313, Final residual = 0.00035201418, No Iterations 1
GAMG:  Solving for p, Initial residual = 0.0073904353, Final residual = 0.00038288404, No Iterations 3
time step continuity errors : sum local = 1.7553595e-05, global = -1.0177188e-06, cumulative = 4.8074509e-06
DILUPBiCGStab:  Solving for omega, Initial residual = 3.8058453e-06, Final residual = 6.6576043e-09, No Iterations 1
smoothSolver:  Solving for k, Initial residual = 0.010688876, Final residual = 0.00061319678, No Iterations 2
bounding k, min: 0 max: 0.0020970157 average: 0.0010200567
ExecutionTime = 2.07 s  ClockTime = 2 s

Time = 32

smoothSolver:  Solving for Ux, Initial residual = 0.0014335982, Final residual = 0.00011941652, No Iterations 6
smoothSolver:  Solving for Uy, Initial residual = 0.0095738052, Final residual = 0.00033463431, No Iterations 1
GAMG:  Solving for p, Initial residual = 0.0070149362, Final residual = 0.00036836855, No Iterations 3
time step continuity errors : sum local = 1.7276584e-05, global = -1.0421898e-06, cumulative = 3.7652611e-06
DILUPBiCGStab:  Solving for omega, Initial residual = 3.6158007e-06, Final residual = 6.4615677e-09, No Iterations 1
smoothSolver:  Solving for k, Initial residual = 0.010138624, Final residual = 0.00054722785, No Iterations 2
bounding k, min: 0 max: 0.0021758076 average: 0.0010259835
ExecutionTime = 2.13 s  ClockTime = 2 s

Time = 33

smoothSolver:  Solving for Ux, Initial residual = 0.0013750292, Final residual = 0.00011470232, No Iterations 6
smoothSolver:  Solving for Uy, Initial residual = 0.0092589974, Final residual = 0.00031857009, No Iterations 1
GAMG:  Solving for p, Initial residual = 0.0066511958, Final residual = 0.00035422514, No Iterations 3
time step continuity errors : sum local = 1.7001571e-05, global = -1.0515529e-06, cumulative = 2.7137082e-06
DILUPBiCGStab:  Solving for omega, Initial residual = 3.4839243e-06, Final residual = 6.3453823e-09, No Iterations 1
smoothSolver:  Solving for k, Initial residual = 0.0091198779, Final residual = 0.00050405261, No Iterations 2
bounding k, min: 0 max: 0.00225898 average: 0.0010324753
ExecutionTime = 2.19 s  ClockTime = 2 s

Time = 34

smoothSolver:  Solving for Ux, Initial residual = 0.0013202479, Final residual = 0.00011027911, No Iterations 6
smoothSolver:  Solving for Uy, Initial residual = 0.0089759559, Final residual = 0.00030368819, No Iterations 1
GAMG:  Solving for p, Initial residual = 0.0063018078, Final residual = 0.00034060295, No Iterations 3
time step continuity errors : sum local = 1.6732834e-05, global = -1.045382e-06, cumulative = 1.6683262e-06
DILUPBiCGStab:  Solving for omega, Initial residual = 3.2893998e-06, Final residual = 6.010044e-09, No Iterations 1
smoothSolver:  Solving for k, Initial residual = 0.0081461046, Final residual = 0.00047327729, No Iterations 2
bounding k, min: 0 max: 0.0023470922 average: 0.0010395028
ExecutionTime = 2.25 s  ClockTime = 2 s

Time = 35

smoothSolver:  Solving for Ux, Initial residual = 0.0012689236, Final residual = 0.00010612282, No Iterations 6
smoothSolver:  Solving for Uy, Initial residual = 0.0087195188, Final residual = 0.00028988684, No Iterations 1
GAMG:  Solving for p, Initial residual = 0.0059671573, Final residual = 0.00032756297, No Iterations 3
time step continuity errors : sum local = 1.6470185e-05, global = -1.0277529e-06, cumulative = 6.4057332e-07
DILUPBiCGStab:  Solving for omega, Initial residual = 3.1428053e-06, Final residual = 5.8637799e-09, No Iterations 1
smoothSolver:  Solving for k, Initial residual = 0.007316719, Final residual = 0.00042493124, No Iterations 2
bounding k, min: 0 max: 0.0024472909 average: 0.001047128
ExecutionTime = 2.31 s  ClockTime = 2 s

Time = 36

smoothSolver:  Solving for Ux, Initial residual = 0.0012207425, Final residual = 0.00010221025, No Iterations 6
smoothSolver:  Solving for Uy, Initial residual = 0.0084861611, Final residual = 0.00027707862, No Iterations 1
GAMG:  Solving for p, Initial residual = 0.005648895, Final residual = 0.00031505463, No Iterations 3
time step continuity errors : sum local = 1.620977e-05, global = -1.00456e-06, cumulative = -3.6398668e-07
DILUPBiCGStab:  Solving for omega, Initial residual = 2.9904753e-06, Final residual = 5.6598803e-09, No Iterations 1
smoothSolver:  Solving for k, Initial residual = 0.0068234121, Final residual = 0.00040178784, No Iterations 2
bounding k, min: 0 max: 0.002555002 average: 0.0010553128
ExecutionTime = 2.37 s  ClockTime = 2 s

Time = 37

smoothSolver:  Solving for Ux, Initial residual = 0.0011754442, Final residual = 9.8522251e-05, No Iterations 6
smoothSolver:  Solving for Uy, Initial residual = 0.0082718338, Final residual = 0.00026514879, No Iterations 1
GAMG:  Solving for p, Initial residual = 0.0053460694, Final residual = 0.00030300726, No Iterations 3
time step continuity errors : sum local = 1.5948527e-05, global = -9.8077231e-07, cumulative = -1.344759e-06
DILUPBiCGStab:  Solving for omega, Initial residual = 2.8813556e-06, Final residual = 5.443162e-09, No Iterations 1
smoothSolver:  Solving for k, Initial residual = 0.0062295064, Final residual = 0.00037255727, No Iterations 2
bounding k, min: 0 max: 0.0026712305 average: 0.0010641519
ExecutionTime = 2.43 s  ClockTime = 2 s

Time = 38

smoothSolver:  Solving for Ux, Initial residual = 0.0011327813, Final residual = 9.5040308e-05, No Iterations 6
smoothSolver:  Solving for Uy, Initial residual = 0.0080747423, Final residual = 0.00025402552, No Iterations 1
GAMG:  Solving for p, Initial residual = 0.0050583387, Final residual = 0.0002913893, No Iterations 3
time step continuity errors : sum local = 1.5686308e-05, global = -9.5900183e-07, cumulative = -2.3037608e-06
DILUPBiCGStab:  Solving for omega, Initial residual = 2.7526893e-06, Final residual = 5.2216813e-09, No Iterations 1
smoothSolver:  Solving for k, Initial residual = 0.0058453344, Final residual = 0.0003507948, No Iterations 2
bounding k, min: 0 max: 0.0027973996 average: 0.0010737113
ExecutionTime = 2.49 s  ClockTime = 2 s

Time = 39

smoothSolver:  Solving for Ux, Initial residual = 0.0010925469, Final residual = 9.1748964e-05, No Iterations 6
smoothSolver:  Solving for Uy, Initial residual = 0.0078928352, Final residual = 0.00024366091, No Iterations 1
GAMG:  Solving for p, Initial residual = 0.004783819, Final residual = 0.00028020613, No Iterations 3
time step continuity errors : sum local = 1.542461e-05, global = -9.3977724e-07, cumulative = -3.2435381e-06
DILUPBiCGStab:  Solving for omega, Initial residual = 2.6358103e-06, Final residual = 5.0675121e-09, No Iterations 1
smoothSolver:  Solving for k, Initial residual = 0.0054587835, Final residual = 0.00033155933, No Iterations 2
bounding k, min: 0 max: 0.0029354032 average: 0.0010839871
ExecutionTime = 2.55 s  ClockTime = 2 s

Time = 40

smoothSolver:  Solving for Ux, Initial residual = 0.0010545442, Final residual = 8.8633329e-05, No Iterations 6
smoothSolver:  Solving for Uy, Initial residual = 0.0077249694, Final residual = 0.00023398045, No Iterations 1
GAMG:  Solving for p, Initial residual = 0.0045241998, Final residual = 0.00026947164, No Iterations 3
time step continuity errors : sum local = 1.516608e-05, global = -9.2251752e-07, cumulative = -4.1660556e-06
DILUPBiCGStab:  Solving for omega, Initial residual = 2.5530753e-06, Final residual = 4.9226479e-09, No Iterations 1
smoothSolver:  Solving for k, Initial residual = 0.0051516743, Final residual = 0.00031654972, No Iterations 2
bounding k, min: 0 max: 0.0030898146 average: 0.0010950626
ExecutionTime = 2.61 s  ClockTime = 2 s

Time = 41

smoothSolver:  Solving for Ux, Initial residual = 0.0010186055, Final residual = 8.5680723e-05, No Iterations 6
smoothSolver:  Solving for Uy, Initial residual = 0.0075688741, Final residual = 0.00022491657, No Iterations 1
GAMG:  Solving for p, Initial residual = 0.0042772114, Final residual = 0.00025922002, No Iterations 3
time step continuity errors : sum local = 1.4913937e-05, global = -9.0660063e-07, cumulative = -5.0726562e-06
DILUPBiCGStab:  Solving for omega, Initial residual = 2.4568533e-06, Final residual = 4.7596342e-09, No Iterations 1
smoothSolver:  Solving for k, Initial residual = 0.0048230761, Final residual = 0.00029806675, No Iterations 2
bounding k, min: 0 max: 0.0032615532 average: 0.0011070093
ExecutionTime = 2.67 s  ClockTime = 3 s

Time = 42

smoothSolver:  Solving for Ux, Initial residual = 0.00098457286, Final residual = 8.287913e-05, No Iterations 6
smoothSolver:  Solving for Uy, Initial residual = 0.0074232362, Final residual = 0.00021641684, No Iterations 1
GAMG:  Solving for p, Initial residual = 0.0040432084, Final residual = 0.0002494614, No Iterations 3
time step continuity errors : sum local = 1.4670197e-05, global = -8.9170655e-07, cumulative = -5.9643628e-06
DILUPBiCGStab:  Solving for omega, Initial residual = 2.3319923e-06, Final residual = 4.4951197e-09, No Iterations 1
smoothSolver:  Solving for k, Initial residual = 0.0044552786, Final residual = 0.00027575412, No Iterations 2
bounding k, min: 0 max: 0.0034527645 average: 0.0011199248
ExecutionTime = 2.73 s  ClockTime = 3 s

Time = 43

smoothSolver:  Solving for Ux, Initial residual = 0.00095230617, Final residual = 8.02179e-05, No Iterations 6
smoothSolver:  Solving for Uy, Initial residual = 0.0072867293, Final residual = 0.00020844493, No Iterations 1
GAMG:  Solving for p, Initial residual = 0.0038230129, Final residual = 0.00024015413, No Iterations 3
time step continuity errors : sum local = 1.4433931e-05, global = -8.7795326e-07, cumulative = -6.842316e-06
DILUPBiCGStab:  Solving for omega, Initial residual = 2.2822715e-06, Final residual = 4.4260349e-09, No Iterations 1
smoothSolver:  Solving for k, Initial residual = 0.0041506745, Final residual = 0.00026472835, No Iterations 2
bounding k, min: 0 max: 0.0036682533 average: 0.0011339276
ExecutionTime = 2.79 s  ClockTime = 3 s

Time = 44

smoothSolver:  Solving for Ux, Initial residual = 0.00092168005, Final residual = 7.7687435e-05, No Iterations 6
smoothSolver:  Solving for Uy, Initial residual = 0.0071590318, Final residual = 0.00020094841, No Iterations 1
GAMG:  Solving for p, Initial residual = 0.0036157305, Final residual = 0.00023126052, No Iterations 3
time step continuity errors : sum local = 1.4203851e-05, global = -8.6566542e-07, cumulative = -7.7079814e-06
DILUPBiCGStab:  Solving for omega, Initial residual = 2.190034e-06, Final residual = 4.337579e-09, No Iterations 1
smoothSolver:  Solving for k, Initial residual = 0.0037752069, Final residual = 0.00024823283, No Iterations 2
bounding k, min: 0 max: 0.0039192164 average: 0.0011491496
ExecutionTime = 2.85 s  ClockTime = 3 s

Time = 45

smoothSolver:  Solving for Ux, Initial residual = 0.00089257665, Final residual = 7.5278643e-05, No Iterations 6
smoothSolver:  Solving for Uy, Initial residual = 0.0070366403, Final residual = 0.00019388817, No Iterations 1
GAMG:  Solving for p, Initial residual = 0.003420639, Final residual = 0.00022273862, No Iterations 3
time step continuity errors : sum local = 1.3978754e-05, global = -8.5501236e-07, cumulative = -8.5629938e-06
DILUPBiCGStab:  Solving for omega, Initial residual = 2.0882781e-06, Final residual = 4.1129833e-09, No Iterations 1
smoothSolver:  Solving for k, Initial residual = 0.0035900137, Final residual = 0.00023906103, No Iterations 2
bounding k, min: 0 max: 0.0042037044 average: 0.0011657804
ExecutionTime = 2.91 s  ClockTime = 3 s

Time = 46

smoothSolver:  Solving for Ux, Initial residual = 0.00086489332, Final residual = 7.2983682e-05, No Iterations 6
smoothSolver:  Solving for Uy, Initial residual = 0.0069189216, Final residual = 0.0001872256, No Iterations 1
GAMG:  Solving for p, Initial residual = 0.0032357363, Final residual = 0.0002145555, No Iterations 3
time step continuity errors : sum local = 1.3757795e-05, global = -8.4608974e-07, cumulative = -9.4090835e-06
DILUPBiCGStab:  Solving for omega, Initial residual = 2.0506975e-06, Final residual = 3.9931197e-09, No Iterations 1
smoothSolver:  Solving for k, Initial residual = 0.0034077637, Final residual = 0.00023205003, No Iterations 2
bounding k, min: 0 max: 0.0045269718 average: 0.0011839352
ExecutionTime = 2.97 s  ClockTime = 3 s

Time = 47

smoothSolver:  Solving for Ux, Initial residual = 0.0008385316, Final residual = 7.0794918e-05, No Iterations 6
smoothSolver:  Solving for Uy, Initial residual = 0.0068051992, Final residual = 0.00018093844, No Iterations 1
GAMG:  Solving for p, Initial residual = 0.003061792, Final residual = 0.00020669755, No Iterations 3
time step continuity errors : sum local = 1.3540882e-05, global = -8.3884318e-07, cumulative = -1.0247927e-05
DILUPBiCGStab:  Solving for omega, Initial residual = 1.9624876e-06, Final residual = 3.8728646e-09, No Iterations 1
smoothSolver:  Solving for k, Initial residual = 0.0032673811, Final residual = 0.00022439104, No Iterations 2
bounding k, min: 0 max: 0.0048950796 average: 0.0012038705
ExecutionTime = 3.03 s  ClockTime = 3 s

Time = 48

smoothSolver:  Solving for Ux, Initial residual = 0.00081340597, Final residual = 6.8705746e-05, No Iterations 6
smoothSolver:  Solving for Uy, Initial residual = 0.0066955922, Final residual = 0.000175002, No Iterations 1
GAMG:  Solving for p, Initial residual = 0.0028971319, Final residual = 0.00019913638, No Iterations 3
time step continuity errors : sum local = 1.3327125e-05, global = -8.3313909e-07, cumulative = -1.1081066e-05
DILUPBiCGStab:  Solving for omega, Initial residual = 1.9028436e-06, Final residual = 3.7737713e-09, No Iterations 1
smoothSolver:  Solving for k, Initial residual = 0.0030697191, Final residual = 0.00021308744, No Iterations 2
bounding k, min: 0 max: 0.0053258571 average: 0.0012258907
ExecutionTime = 3.1 s  ClockTime = 3 s

Time = 49

smoothSolver:  Solving for Ux, Initial residual = 0.00078943441, Final residual = 6.6709776e-05, No Iterations 6
smoothSolver:  Solving for Uy, Initial residual = 0.0065896685, Final residual = 0.00016937669, No Iterations 1
GAMG:  Solving for p, Initial residual = 0.0027426062, Final residual = 0.00019185619, No Iterations 3
time step continuity errors : sum local = 1.3116235e-05, global = -8.2882403e-07, cumulative = -1.190989e-05
DILUPBiCGStab:  Solving for omega, Initial residual = 1.8404119e-06, Final residual = 3.6147392e-09, No Iterations 1
smoothSolver:  Solving for k, Initial residual = 0.0028453696, Final residual = 0.00020655483, No Iterations 2
bounding k, min: 0 max: 0.0058368101 average: 0.0012503781
ExecutionTime = 3.16 s  ClockTime = 3 s

Time = 50

smoothSolver:  Solving for Ux, Initial residual = 0.00076654411, Final residual = 6.4801327e-05, No Iterations 6
smoothSolver:  Solving for Uy, Initial residual = 0.0064875677, Final residual = 0.0001640476, No Iterations 1
GAMG:  Solving for p, Initial residual = 0.0025988139, Final residual = 0.00018484304, No Iterations 3
time step continuity errors : sum local = 1.2908069e-05, global = -8.2584554e-07, cumulative = -1.2735735e-05
DILUPBiCGStab:  Solving for omega, Initial residual = 1.7972127e-06, Final residual = 3.4864949e-09, No Iterations 1
smoothSolver:  Solving for k, Initial residual = 0.002733963, Final residual = 0.00020028465, No Iterations 2
bounding k, min: 0 max: 0.0064184775 average: 0.0012776398
ExecutionTime = 3.22 s  ClockTime = 3 s

Time = 51

smoothSolver:  Solving for Ux, Initial residual = 0.00074466811, Final residual = 6.2975159e-05, No Iterations 6
smoothSolver:  Solving for Uy, Initial residual = 0.0063892341, Final residual = 0.00015899236, No Iterations 1
GAMG:  Solving for p, Initial residual = 0.0024643478, Final residual = 0.00017805381, No Iterations 3
time step continuity errors : sum local = 1.270048e-05, global = -8.143617e-07, cumulative = -1.3550097e-05
DILUPBiCGStab:  Solving for omega, Initial residual = 1.7147513e-06, Final residual = 3.2899852e-09, No Iterations 1
smoothSolver:  Solving for k, Initial residual = 0.0026180402, Final residual = 0.00019453074, No Iterations 2
bounding k, min: 0 max: 0.0070736086 average: 0.0013082082
ExecutionTime = 3.28 s  ClockTime = 3 s

Time = 52

smoothSolver:  Solving for Ux, Initial residual = 0.00072374387, Final residual = 6.1226311e-05, No Iterations 6
smoothSolver:  Solving for Uy, Initial residual = 0.0062941883, Final residual = 0.00015418869, No Iterations 1
GAMG:  Solving for p, Initial residual = 0.0023384723, Final residual = 0.00017154665, No Iterations 3
time step continuity errors : sum local = 1.2499016e-05, global = -8.0838907e-07, cumulative = -1.4358486e-05
DILUPBiCGStab:  Solving for omega, Initial residual = 1.6669812e-06, Final residual = 3.1046583e-09, No Iterations 1
smoothSolver:  Solving for k, Initial residual = 0.0025042467, Final residual = 0.00019201232, No Iterations 2
bounding k, min: 0 max: 0.0078141708 average: 0.0013426307
ExecutionTime = 3.34 s  ClockTime = 3 s

Time = 53

smoothSolver:  Solving for Ux, Initial residual = 0.00070371405, Final residual = 5.9550378e-05, No Iterations 6
smoothSolver:  Solving for Uy, Initial residual = 0.0062010642, Final residual = 0.0001496303, No Iterations 1
GAMG:  Solving for p, Initial residual = 0.0022212556, Final residual = 0.0001652628, No Iterations 3
time step continuity errors : sum local = 1.2298076e-05, global = -8.0681656e-07, cumulative = -1.5165303e-05
DILUPBiCGStab:  Solving for omega, Initial residual = 1.6156112e-06, Final residual = 2.9834946e-09, No Iterations 1
smoothSolver:  Solving for k, Initial residual = 0.0023659275, Final residual = 0.00018711951, No Iterations 2
bounding k, min: 0 max: 0.008677117 average: 0.0013814075
ExecutionTime = 3.4 s  ClockTime = 3 s

Time = 54

smoothSolver:  Solving for Ux, Initial residual = 0.00068452538, Final residual = 5.79431e-05, No Iterations 6
smoothSolver:  Solving for Uy, Initial residual = 0.0061116038, Final residual = 0.00014528851, No Iterations 1
GAMG:  Solving for p, Initial residual = 0.00211068, Final residual = 0.0001591593, No Iterations 3
time step continuity errors : sum local = 1.2095878e-05, global = -8.0809862e-07, cumulative = -1.5973401e-05
DILUPBiCGStab:  Solving for omega, Initial residual = 1.5756886e-06, Final residual = 2.8130846e-09, No Iterations 1
smoothSolver:  Solving for k, Initial residual = 0.0022733483, Final residual = 0.00018471282, No Iterations 2
bounding k, min: 0 max: 0.0096747113 average: 0.0014248845
ExecutionTime = 3.46 s  ClockTime = 3 s

Time = 55

smoothSolver:  Solving for Ux, Initial residual = 0.00066612945, Final residual = 5.6400628e-05, No Iterations 6
smoothSolver:  Solving for Uy, Initial residual = 0.0060251415, Final residual = 0.00014115611, No Iterations 1
GAMG:  Solving for p, Initial residual = 0.00200695, Final residual = 0.00015324944, No Iterations 3
time step continuity errors : sum local = 1.1894322e-05, global = -8.1062442e-07, cumulative = -1.6784026e-05
DILUPBiCGStab:  Solving for omega, Initial residual = 1.5191186e-06, Final residual = 2.6795363e-09, No Iterations 1
smoothSolver:  Solving for k, Initial residual = 0.0022039434, Final residual = 0.00018063758, No Iterations 2
bounding k, min: 0 max: 0.010814434 average: 0.001473784
ExecutionTime = 3.52 s  ClockTime = 3 s

Time = 56

smoothSolver:  Solving for Ux, Initial residual = 0.00064848125, Final residual = 5.4919398e-05, No Iterations 6
smoothSolver:  Solving for Uy, Initial residual = 0.0059406869, Final residual = 0.00013721707, No Iterations 1
GAMG:  Solving for p, Initial residual = 0.001909555, Final residual = 0.00014757181, No Iterations 3
time step continuity errors : sum local = 1.1696923e-05, global = -7.9336422e-07, cumulative = -1.757739e-05
DILUPBiCGStab:  Solving for omega, Initial residual = 1.480713e-06, Final residual = 2.4600878e-09, No Iterations 1
smoothSolver:  Solving for k, Initial residual = 0.0021225038, Final residual = 0.0001776025, No Iterations 2
bounding k, min: 0 max: 0.012116709 average: 0.0015288602
ExecutionTime = 3.58 s  ClockTime = 3 s

Time = 57

smoothSolver:  Solving for Ux, Initial residual = 0.00063153926, Final residual = 5.3496044e-05, No Iterations 6
smoothSolver:  Solving for Uy, Initial residual = 0.0058589061, Final residual = 0.00013346343, No Iterations 1
GAMG:  Solving for p, Initial residual = 0.0018181597, Final residual = 0.00014213441, No Iterations 3
time step continuity errors : sum local = 1.1505947e-05, global = -7.8821622e-07, cumulative = -1.8365606e-05
DILUPBiCGStab:  Solving for omega, Initial residual = 1.4248663e-06, Final residual = 2.2894617e-09, No Iterations 1
smoothSolver:  Solving for k, Initial residual = 0.00205827, Final residual = 0.00017761182, No Iterations 2
bounding k, min: 0 max: 0.013638983 average: 0.0015911613
ExecutionTime = 3.64 s  ClockTime = 3 s

Time = 58

smoothSolver:  Solving for Ux, Initial residual = 0.00061526318, Final residual = 5.2127506e-05, No Iterations 6
smoothSolver:  Solving for Uy, Initial residual = 0.0057781691, Final residual = 0.00012988279, No Iterations 1
GAMG:  Solving for p, Initial residual = 0.0017327048, Final residual = 0.0001368917, No Iterations 3
time step continuity errors : sum local = 1.1315843e-05, global = -7.8924253e-07, cumulative = -1.9154849e-05
DILUPBiCGStab:  Solving for omega, Initial residual = 1.3829777e-06, Final residual = 2.1788375e-09, No Iterations 1
smoothSolver:  Solving for k, Initial residual = 0.0019999462, Final residual = 0.00017405304, No Iterations 2
bounding k, min: 0 max: 0.015431511 average: 0.0016617595
ExecutionTime = 3.7 s  ClockTime = 4 s

Time = 59

smoothSolver:  Solving for Ux, Initial residual = 0.00059961743, Final residual = 5.0810849e-05, No Iterations 6
smoothSolver:  Solving for Uy, Initial residual = 0.0056989359, Final residual = 0.00012646448, No Iterations 1
GAMG:  Solving for p, Initial residual = 0.0016521799, Final residual = 0.00013179826, No Iterations 3
time step continuity errors : sum local = 1.112443e-05, global = -7.9348579e-07, cumulative = -1.9948335e-05
DILUPBiCGStab:  Solving for omega, Initial residual = 1.3491998e-06, Final residual = 2.0801557e-09, No Iterations 1
smoothSolver:  Solving for k, Initial residual = 0.001968028, Final residual = 0.00017491237, No Iterations 2
bounding k, min: 0 max: 0.01749303 average: 0.0017420963
ExecutionTime = 3.76 s  ClockTime = 4 s

Time = 60

smoothSolver:  Solving for Ux, Initial residual = 0.00058456827, Final residual = 4.9543369e-05, No Iterations 6
smoothSolver:  Solving for Uy, Initial residual = 0.0056215896, Final residual = 0.00012319948, No Iterations 1
GAMG:  Solving for p, Initial residual = 0.0015777022, Final residual = 0.00012686786, No Iterations 3
time step continuity errors : sum local = 1.0933641e-05, global = -7.9859358e-07, cumulative = -2.0746928e-05
DILUPBiCGStab:  Solving for omega, Initial residual = 1.3099282e-06, Final residual = 2.0226312e-09, No Iterations 1
smoothSolver:  Solving for k, Initial residual = 0.0018739041, Final residual = 0.0001708581, No Iterations 2
bounding k, min: 0 max: 0.019863422 average: 0.0018339161
ExecutionTime = 3.82 s  ClockTime = 4 s

Time = 61

smoothSolver:  Solving for Ux, Initial residual = 0.00057008476, Final residual = 4.8322595e-05, No Iterations 6
smoothSolver:  Solving for Uy, Initial residual = 0.0055460896, Final residual = 0.00012007929, No Iterations 1
GAMG:  Solving for p, Initial residual = 0.0015075756, Final residual = 0.00012211396, No Iterations 3
time step continuity errors : sum local = 1.0745076e-05, global = -8.0347194e-07, cumulative = -2.15504e-05
DILUPBiCGStab:  Solving for omega, Initial residual = 1.2687278e-06, Final residual = 1.8959952e-09, No Iterations 1
smoothSolver:  Solving for k, Initial residual = 0.0018469653, Final residual = 0.00016995473, No Iterations 2
bounding k, min: 0 max: 0.022723133 average: 0.0019390024
ExecutionTime = 3.88 s  ClockTime = 4 s

Time = 62

smoothSolver:  Solving for Ux, Initial residual = 0.00055613725, Final residual = 4.7146145e-05, No Iterations 6
smoothSolver:  Solving for Uy, Initial residual = 0.0054724405, Final residual = 0.00011709305, No Iterations 1
GAMG:  Solving for p, Initial residual = 0.0014409592, Final residual = 0.00011753999, No Iterations 3
time step continuity errors : sum local = 1.0559462e-05, global = -8.0792785e-07, cumulative = -2.2358328e-05
DILUPBiCGStab:  Solving for omega, Initial residual = 1.2379992e-06, Final residual = 1.872653e-09, No Iterations 1
smoothSolver:  Solving for k, Initial residual = 0.0017612332, Final residual = 0.00016633414, No Iterations 2
bounding k, min: 0 max: 0.026048697 average: 0.0020600631
ExecutionTime = 3.94 s  ClockTime = 4 s

Time = 63

smoothSolver:  Solving for Ux, Initial residual = 0.00054269839, Final residual = 4.6011821e-05, No Iterations 6
smoothSolver:  Solving for Uy, Initial residual = 0.0054005295, Final residual = 0.00011423813, No Iterations 1
GAMG:  Solving for p, Initial residual = 0.0013779831, Final residual = 0.00011313751, No Iterations 3
time step continuity errors : sum local = 1.0376519e-05, global = -8.1220194e-07, cumulative = -2.317053e-05
DILUPBiCGStab:  Solving for omega, Initial residual = 1.2079684e-06, Final residual = 1.802576e-09, No Iterations 1
smoothSolver:  Solving for k, Initial residual = 0.0017459469, Final residual = 0.00016590283, No Iterations 2
bounding k, min: 0 max: 0.029907399 average: 0.0021996735
ExecutionTime = 4 s  ClockTime = 4 s

Time = 64

smoothSolver:  Solving for Ux, Initial residual = 0.00052974254, Final residual = 4.4917553e-05, No Iterations 6
smoothSolver:  Solving for Uy, Initial residual = 0.0053301349, Final residual = 0.00011150652, No Iterations 1
GAMG:  Solving for p, Initial residual = 0.0013179258, Final residual = 0.00010889949, No Iterations 3
time step continuity errors : sum local = 1.0196048e-05, global = -8.1658369e-07, cumulative = -2.3987113e-05
DILUPBiCGStab:  Solving for omega, Initial residual = 1.1729115e-06, Final residual = 1.7473791e-09, No Iterations 1
smoothSolver:  Solving for k, Initial residual = 0.001689498, Final residual = 0.00016420273, No Iterations 2
bounding k, min: 0 max: 0.034575344 average: 0.0023614015
ExecutionTime = 4.06 s  ClockTime = 4 s

Time = 65

smoothSolver:  Solving for Ux, Initial residual = 0.00051724593, Final residual = 4.3861419e-05, No Iterations 6
smoothSolver:  Solving for Uy, Initial residual = 0.0052612159, Final residual = 0.00010889421, No Iterations 1
GAMG:  Solving for p, Initial residual = 0.0012612954, Final residual = 0.00010482188, No Iterations 3
time step continuity errors : sum local = 1.0018165e-05, global = -8.2124894e-07, cumulative = -2.4808362e-05
DILUPBiCGStab:  Solving for omega, Initial residual = 1.1451462e-06, Final residual = 1.7085813e-09, No Iterations 1
smoothSolver:  Solving for k, Initial residual = 0.001682189, Final residual = 0.00016428633, No Iterations 2
bounding k, min: 0 max: 0.040044634 average: 0.0025492166
ExecutionTime = 4.12 s  ClockTime = 4 s

Time = 66

smoothSolver:  Solving for Ux, Initial residual = 0.0005051862, Final residual = 4.2841613e-05, No Iterations 6
smoothSolver:  Solving for Uy, Initial residual = 0.005193704, Final residual = 0.00010640156, No Iterations 1
GAMG:  Solving for p, Initial residual = 0.0012073258, Final residual = 0.0001009029, No Iterations 3
time step continuity errors : sum local = 9.8432176e-06, global = -8.2606117e-07, cumulative = -2.5634424e-05
DILUPBiCGStab:  Solving for omega, Initial residual = 1.1188142e-06, Final residual = 1.6727211e-09, No Iterations 1
smoothSolver:  Solving for k, Initial residual = 0.0016502496, Final residual = 0.00016292542, No Iterations 2
bounding k, min: 0 max: 0.04645237 average: 0.0027682206
ExecutionTime = 4.18 s  ClockTime = 4 s

Time = 67

smoothSolver:  Solving for Ux, Initial residual = 0.00049354208, Final residual = 4.1856399e-05, No Iterations 6
smoothSolver:  Solving for Uy, Initial residual = 0.005127605, Final residual = 0.00010401118, No Iterations 1
GAMG:  Solving for p, Initial residual = 0.0011567045, Final residual = 9.7134442e-05, No Iterations 3
time step continuity errors : sum local = 9.6709386e-06, global = -8.3096186e-07, cumulative = -2.6465385e-05
DILUPBiCGStab:  Solving for omega, Initial residual = 1.0843322e-06, Final residual = 1.6220444e-09, No Iterations 1
smoothSolver:  Solving for k, Initial residual = 0.0016348371, Final residual = 0.00016232308, No Iterations 2
bounding k, min: 0 max: 0.053963453 average: 0.0030240819
ExecutionTime = 4.24 s  ClockTime = 4 s

Time = 68

smoothSolver:  Solving for Ux, Initial residual = 0.0004822942, Final residual = 4.0904199e-05, No Iterations 6
smoothSolver:  Solving for Uy, Initial residual = 0.0050628562, Final residual = 0.00010170996, No Iterations 1
GAMG:  Solving for p, Initial residual = 0.0011091946, Final residual = 9.3508851e-05, No Iterations 3
time step continuity errors : sum local = 9.5010809e-06, global = -8.3593084e-07, cumulative = -2.7301316e-05
DILUPBiCGStab:  Solving for omega, Initial residual = 1.0574096e-06, Final residual = 1.5837154e-09, No Iterations 1
smoothSolver:  Solving for k, Initial residual = 0.0016292716, Final residual = 0.00016247357, No Iterations 2
bounding k, min: 0 max: 0.062959578 average: 0.0033239193
ExecutionTime = 4.3 s  ClockTime = 4 s

Time = 69

smoothSolver:  Solving for Ux, Initial residual = 0.00047142416, Final residual = 3.9983511e-05, No Iterations 6
smoothSolver:  Solving for Uy, Initial residual = 0.004999443, Final residual = 9.949162e-05, No Iterations 1
GAMG:  Solving for p, Initial residual = 0.0010642739, Final residual = 9.001945e-05, No Iterations 3
time step continuity errors : sum local = 9.3334591e-06, global = -8.4091547e-07, cumulative = -2.8142232e-05
DILUPBiCGStab:  Solving for omega, Initial residual = 1.0302285e-06, Final residual = 1.5006519e-09, No Iterations 1
smoothSolver:  Solving for k, Initial residual = 0.0016030977, Final residual = 5.3416389e-05, No Iterations 3
bounding k, min: 0 max: 0.074552083 average: 0.0037033648
ExecutionTime = 4.36 s  ClockTime = 4 s

Time = 70

smoothSolver:  Solving for Ux, Initial residual = 0.00046091433, Final residual = 3.9092881e-05, No Iterations 6
smoothSolver:  Solving for Uy, Initial residual = 0.0049373275, Final residual = 9.7355333e-05, No Iterations 1
GAMG:  Solving for p, Initial residual = 0.0010235282, Final residual = 8.6660431e-05, No Iterations 3
time step continuity errors : sum local = 9.1679555e-06, global = -8.4568787e-07, cumulative = -2.898792e-05
DILUPBiCGStab:  Solving for omega, Initial residual = 1.0069424e-06, Final residual = 1.471613e-09, No Iterations 1
smoothSolver:  Solving for k, Initial residual = 0.0016322849, Final residual = 0.00016318865, No Iterations 2
bounding k, min: 0 max: 0.087768772 average: 0.0041223222
ExecutionTime = 4.42 s  ClockTime = 4 s

Time = 71

smoothSolver:  Solving for Ux, Initial residual = 0.00045074883, Final residual = 3.823102e-05, No Iterations 6
smoothSolver:  Solving for Uy, Initial residual = 0.0048764462, Final residual = 9.5291881e-05, No Iterations 1
GAMG:  Solving for p, Initial residual = 0.000983229, Final residual = 8.342203e-05, No Iterations 3
time step continuity errors : sum local = 9.0040255e-06, global = -8.508383e-07, cumulative = -2.9838758e-05
DILUPBiCGStab:  Solving for omega, Initial residual = 9.8101415e-07, Final residual = 1.4359134e-09, No Iterations 1
smoothSolver:  Solving for k, Initial residual = 0.0015984924, Final residual = 5.3008099e-05, No Iterations 3
bounding k, min: 0 max: 0.1044418 average: 0.0046541553
ExecutionTime = 4.48 s  ClockTime = 4 s

Time = 72

smoothSolver:  Solving for Ux, Initial residual = 0.00044091166, Final residual = 3.7396644e-05, No Iterations 6
smoothSolver:  Solving for Uy, Initial residual = 0.0048167957, Final residual = 9.3301966e-05, No Iterations 1
GAMG:  Solving for p, Initial residual = 0.00094847629, Final residual = 8.0297953e-05, No Iterations 3
time step continuity errors : sum local = 8.8414016e-06, global = -8.5638554e-07, cumulative = -3.0695143e-05
DILUPBiCGStab:  Solving for omega, Initial residual = 9.5677665e-07, Final residual = 1.3871858e-09, No Iterations 1
smoothSolver:  Solving for k, Initial residual = 0.0016134656, Final residual = 5.3384243e-05, No Iterations 3
bounding k, min: 0 max: 0.12452119 average: 0.0052906138
ExecutionTime = 4.54 s  ClockTime = 4 s

Time = 73

smoothSolver:  Solving for Ux, Initial residual = 0.00043138872, Final residual = 3.6588625e-05, No Iterations 6
smoothSolver:  Solving for Uy, Initial residual = 0.0047583736, Final residual = 9.137922e-05, No Iterations 1
GAMG:  Solving for p, Initial residual = 0.00091482947, Final residual = 7.728449e-05, No Iterations 3
time step continuity errors : sum local = 8.6801762e-06, global = -8.6181431e-07, cumulative = -3.1556958e-05
DILUPBiCGStab:  Solving for omega, Initial residual = 9.3631129e-07, Final residual = 1.3394249e-09, No Iterations 1
smoothSolver:  Solving for k, Initial residual = 0.0016291403, Final residual = 5.367582e-05, No Iterations 3
bounding k, min: 0 max: 0.14906956 average: 0.0060518954
ExecutionTime = 4.61 s  ClockTime = 4 s

Time = 74

smoothSolver:  Solving for Ux, Initial residual = 0.00042216646, Final residual = 3.5805769e-05, No Iterations 6
smoothSolver:  Solving for Uy, Initial residual = 0.0047011735, Final residual = 8.9520988e-05, No Iterations 1
GAMG:  Solving for p, Initial residual = 0.00088413802, Final residual = 7.4378267e-05, No Iterations 3
time step continuity errors : sum local = 8.5203858e-06, global = -8.6730992e-07, cumulative = -3.2424268e-05
DILUPBiCGStab:  Solving for omega, Initial residual = 9.1123371e-07, Final residual = 1.2770557e-09, No Iterations 1
smoothSolver:  Solving for k, Initial residual = 0.0016200401, Final residual = 5.334981e-05, No Iterations 3
bounding k, min: 0 max: 0.1785468 average: 0.0069676609
ExecutionTime = 4.67 s  ClockTime = 5 s

Time = 75

smoothSolver:  Solving for Ux, Initial residual = 0.0004132323, Final residual = 3.5046975e-05, No Iterations 6
smoothSolver:  Solving for Uy, Initial residual = 0.0046451924, Final residual = 8.7723754e-05, No Iterations 1
GAMG:  Solving for p, Initial residual = 0.00085825826, Final residual = 7.1570524e-05, No Iterations 3
time step continuity errors : sum local = 8.3614827e-06, global = -8.7315496e-07, cumulative = -3.3297423e-05
DILUPBiCGStab:  Solving for omega, Initial residual = 8.9141766e-07, Final residual = 1.216489e-09, No Iterations 1
smoothSolver:  Solving for k, Initial residual = 0.0016169179, Final residual = 5.3125981e-05, No Iterations 3
bounding k, min: 0 max: 0.21390396 average: 0.0080679732
ExecutionTime = 4.73 s  ClockTime = 5 s

Time = 76

smoothSolver:  Solving for Ux, Initial residual = 0.00040457444, Final residual = 3.4311233e-05, No Iterations 6
smoothSolver:  Solving for Uy, Initial residual = 0.0045905192, Final residual = 8.5985302e-05, No Iterations 1
GAMG:  Solving for p, Initial residual = 0.00083480137, Final residual = 6.8862388e-05, No Iterations 3
time step continuity errors : sum local = 8.2040761e-06, global = -8.8040029e-07, cumulative = -3.4177823e-05
DILUPBiCGStab:  Solving for omega, Initial residual = 8.7031823e-07, Final residual = 1.1976057e-09, No Iterations 1
smoothSolver:  Solving for k, Initial residual = 0.001611319, Final residual = 5.274566e-05, No Iterations 3
bounding k, min: 0 max: 0.25682943 average: 0.0093923898
ExecutionTime = 4.79 s  ClockTime = 5 s

Time = 77

smoothSolver:  Solving for Ux, Initial residual = 0.00039618142, Final residual = 3.3597561e-05, No Iterations 6
smoothSolver:  Solving for Uy, Initial residual = 0.0045372828, Final residual = 8.4304479e-05, No Iterations 1
GAMG:  Solving for p, Initial residual = 0.00082061926, Final residual = 6.62526e-05, No Iterations 3
time step continuity errors : sum local = 8.048507e-06, global = -8.8911502e-07, cumulative = -3.5066938e-05
DILUPBiCGStab:  Solving for omega, Initial residual = 8.5050488e-07, Final residual = 1.1414044e-09, No Iterations 1
smoothSolver:  Solving for k, Initial residual = 0.0016222953, Final residual = 5.298388e-05, No Iterations 3
bounding k, min: 0 max: 0.30889529 average: 0.010990564
ExecutionTime = 4.85 s  ClockTime = 5 s

Time = 78

smoothSolver:  Solving for Ux, Initial residual = 0.00038804201, Final residual = 3.2905057e-05, No Iterations 6
smoothSolver:  Solving for Uy, Initial residual = 0.004485463, Final residual = 8.2678556e-05, No Iterations 1
GAMG:  Solving for p, Initial residual = 0.00080197281, Final residual = 6.3730689e-05, No Iterations 3
time step continuity errors : sum local = 7.8939734e-06, global = -8.9792619e-07, cumulative = -3.5964864e-05
DILUPBiCGStab:  Solving for omega, Initial residual = 8.3180117e-07, Final residual = 1.1220008e-09, No Iterations 1
smoothSolver:  Solving for k, Initial residual = 0.0016211453, Final residual = 5.3012351e-05, No Iterations 3
bounding k, min: 0 max: 0.37152775 average: 0.012920637
ExecutionTime = 4.92 s  ClockTime = 5 s

Time = 79

smoothSolver:  Solving for Ux, Initial residual = 0.00038014613, Final residual = 3.2232827e-05, No Iterations 6
smoothSolver:  Solving for Uy, Initial residual = 0.0044352203, Final residual = 8.1108423e-05, No Iterations 1
GAMG:  Solving for p, Initial residual = 0.0007938098, Final residual = 6.127889e-05, No Iterations 3
time step continuity errors : sum local = 7.738721e-06, global = -9.075403e-07, cumulative = -3.6872404e-05
DILUPBiCGStab:  Solving for omega, Initial residual = 8.1106519e-07, Final residual = 1.0576334e-09, No Iterations 1
smoothSolver:  Solving for k, Initial residual = 0.0016251342, Final residual = 5.2978335e-05, No Iterations 3
bounding k, min: 0 max: 0.44651337 average: 0.015249706
ExecutionTime = 4.98 s  ClockTime = 5 s

Time = 80

smoothSolver:  Solving for Ux, Initial residual = 0.00037248448, Final residual = 3.1580074e-05, No Iterations 6
smoothSolver:  Solving for Uy, Initial residual = 0.0043866256, Final residual = 7.9588131e-05, No Iterations 1
GAMG:  Solving for p, Initial residual = 0.00078788178, Final residual = 5.8866315e-05, No Iterations 3
time step continuity errors : sum local = 7.5791832e-06, global = -9.2664909e-07, cumulative = -3.7799054e-05
DILUPBiCGStab:  Solving for omega, Initial residual = 7.9296464e-07, Final residual = 1.0219224e-09, No Iterations 1
smoothSolver:  Solving for k, Initial residual = 0.0016286367, Final residual = 5.3133814e-05, No Iterations 3
bounding k, min: 0 max: 0.53585376 average: 0.018055849
ExecutionTime = 5.04 s  ClockTime = 5 s

Time = 81

smoothSolver:  Solving for Ux, Initial residual = 0.00036504801, Final residual = 3.0945996e-05, No Iterations 6
smoothSolver:  Solving for Uy, Initial residual = 0.0043400137, Final residual = 7.8113523e-05, No Iterations 1
GAMG:  Solving for p, Initial residual = 0.00078877107, Final residual = 5.6567745e-05, No Iterations 3
time step continuity errors : sum local = 7.4252597e-06, global = -9.3763341e-07, cumulative = -3.8736687e-05
DILUPBiCGStab:  Solving for omega, Initial residual = 7.7468565e-07, Final residual = 1.0097021e-09, No Iterations 1
smoothSolver:  Solving for k, Initial residual = 0.0016354278, Final residual = 5.3591182e-05, No Iterations 3
bounding k, min: 0 max: 0.64201774 average: 0.021434103
ExecutionTime = 5.1 s  ClockTime = 5 s

Time = 82

smoothSolver:  Solving for Ux, Initial residual = 0.00035782844, Final residual = 3.0329827e-05, No Iterations 6
smoothSolver:  Solving for Uy, Initial residual = 0.0042958235, Final residual = 7.6686269e-05, No Iterations 1
GAMG:  Solving for p, Initial residual = 0.00078971454, Final residual = 5.4343272e-05, No Iterations 3
time step continuity errors : sum local = 7.2724746e-06, global = -9.4788543e-07, cumulative = -3.9684572e-05
DILUPBiCGStab:  Solving for omega, Initial residual = 7.5723509e-07, Final residual = 1.0006794e-09, No Iterations 1
smoothSolver:  Solving for k, Initial residual = 0.0016524162, Final residual = 5.4294011e-05, No Iterations 3
bounding k, min: 0 max: 0.76943385 average: 0.025487016
ExecutionTime = 5.17 s  ClockTime = 5 s

Time = 83

smoothSolver:  Solving for Ux, Initial residual = 0.00035081829, Final residual = 2.9730889e-05, No Iterations 6
smoothSolver:  Solving for Uy, Initial residual = 0.004254274, Final residual = 7.5306484e-05, No Iterations 1
GAMG:  Solving for p, Initial residual = 0.00080438675, Final residual = 5.2191694e-05, No Iterations 3
time step continuity errors : sum local = 7.1211496e-06, global = -9.5819503e-07, cumulative = -4.0642767e-05
DILUPBiCGStab:  Solving for omega, Initial residual = 7.3950843e-07, Final residual = 9.3063001e-10, No Iterations 1
smoothSolver:  Solving for k, Initial residual = 0.0016458878, Final residual = 5.455229e-05, No Iterations 3
bounding k, min: 0 max: 0.91909401 average: 0.03033332
ExecutionTime = 5.23 s  ClockTime = 5 s

Time = 84

smoothSolver:  Solving for Ux, Initial residual = 0.00034400982, Final residual = 2.9148476e-05, No Iterations 6
smoothSolver:  Solving for Uy, Initial residual = 0.0042155769, Final residual = 7.3973848e-05, No Iterations 1
GAMG:  Solving for p, Initial residual = 0.0008109827, Final residual = 5.011436e-05, No Iterations 3
time step continuity errors : sum local = 6.9718662e-06, global = -9.6787352e-07, cumulative = -4.1610641e-05
DILUPBiCGStab:  Solving for omega, Initial residual = 7.2295317e-07, Final residual = 9.2667194e-10, No Iterations 1
smoothSolver:  Solving for k, Initial residual = 0.0016443478, Final residual = 5.5010012e-05, No Iterations 3
bounding k, min: 0 max: 1.092868 average: 0.036111354
ExecutionTime = 5.29 s  ClockTime = 5 s

Time = 85

smoothSolver:  Solving for Ux, Initial residual = 0.00033739616, Final residual = 2.8581949e-05, No Iterations 6
smoothSolver:  Solving for Uy, Initial residual = 0.0041800477, Final residual = 7.2690086e-05, No Iterations 1
GAMG:  Solving for p, Initial residual = 0.0008466331, Final residual = 4.8105716e-05, No Iterations 3
time step continuity errors : sum local = 6.8244131e-06, global = -9.7708868e-07, cumulative = -4.258773e-05
DILUPBiCGStab:  Solving for omega, Initial residual = 7.0552256e-07, Final residual = 9.4276399e-10, No Iterations 1
smoothSolver:  Solving for k, Initial residual = 0.001650561, Final residual = 5.6117954e-05, No Iterations 3
bounding k, min: 0 max: 1.2927688 average: 0.042959332
ExecutionTime = 5.35 s  ClockTime = 5 s

Time = 86

smoothSolver:  Solving for Ux, Initial residual = 0.00033097063, Final residual = 2.8030692e-05, No Iterations 6
smoothSolver:  Solving for Uy, Initial residual = 0.0041478464, Final residual = 7.1447217e-05, No Iterations 1
GAMG:  Solving for p, Initial residual = 0.00086697137, Final residual = 4.6135033e-05, No Iterations 3
time step continuity errors : sum local = 6.6747962e-06, global = -9.9181689e-07, cumulative = -4.3579547e-05
DILUPBiCGStab:  Solving for omega, Initial residual = 6.8827685e-07, Final residual = 9.1369649e-10, No Iterations 1
smoothSolver:  Solving for k, Initial residual = 0.0016460698, Final residual = 5.6897343e-05, No Iterations 3
bounding k, min: 0 max: 1.5204585 average: 0.051022429
ExecutionTime = 5.41 s  ClockTime = 5 s

Time = 87

smoothSolver:  Solving for Ux, Initial residual = 0.00032472681, Final residual = 2.7494172e-05, No Iterations 6
smoothSolver:  Solving for Uy, Initial residual = 0.0041192249, Final residual = 7.0247848e-05, No Iterations 1
GAMG:  Solving for p, Initial residual = 0.00089078722, Final residual = 4.4271297e-05, No Iterations 3
time step continuity errors : sum local = 6.5333223e-06, global = -1.0060666e-06, cumulative = -4.4585613e-05
DILUPBiCGStab:  Solving for omega, Initial residual = 6.7165541e-07, Final residual = 8.921324e-10, No Iterations 1
smoothSolver:  Solving for k, Initial residual = 0.0016550967, Final residual = 5.8248116e-05, No Iterations 3
bounding k, min: 0 max: 1.7769805 average: 0.060460835
ExecutionTime = 5.47 s  ClockTime = 5 s

Time = 88

smoothSolver:  Solving for Ux, Initial residual = 0.00031865773, Final residual = 2.6971806e-05, No Iterations 6
smoothSolver:  Solving for Uy, Initial residual = 0.0040948219, Final residual = 6.9072301e-05, No Iterations 1
GAMG:  Solving for p, Initial residual = 0.0009440704, Final residual = 4.2510725e-05, No Iterations 3
time step continuity errors : sum local = 6.4001103e-06, global = -1.0188248e-06, cumulative = -4.5604438e-05
DILUPBiCGStab:  Solving for omega, Initial residual = 6.5580001e-07, Final residual = 8.9197815e-10, No Iterations 1
smoothSolver:  Solving for k, Initial residual = 0.0016410014, Final residual = 5.9000424e-05, No Iterations 3
bounding k, min: 0 max: 2.0633115 average: 0.071413231
ExecutionTime = 5.53 s  ClockTime = 5 s

Time = 89

smoothSolver:  Solving for Ux, Initial residual = 0.00031275759, Final residual = 2.6463146e-05, No Iterations 6
smoothSolver:  Solving for Uy, Initial residual = 0.0040755731, Final residual = 6.7924078e-05, No Iterations 1
GAMG:  Solving for p, Initial residual = 0.00098698494, Final residual = 4.0918049e-05, No Iterations 3
time step continuity errors : sum local = 6.2858256e-06, global = -1.0276198e-06, cumulative = -4.6632058e-05
DILUPBiCGStab:  Solving for omega, Initial residual = 6.386042e-07, Final residual = 9.0609437e-10, No Iterations 1
smoothSolver:  Solving for k, Initial residual = 0.0016353161, Final residual = 6.0344066e-05, No Iterations 3
bounding k, min: 0 max: 2.3838284 average: 0.084033729
ExecutionTime = 5.59 s  ClockTime = 5 s

Time = 90

smoothSolver:  Solving for Ux, Initial residual = 0.00030702029, Final residual = 2.5967694e-05, No Iterations 6
smoothSolver:  Solving for Uy, Initial residual = 0.0040606193, Final residual = 6.6796545e-05, No Iterations 1
GAMG:  Solving for p, Initial residual = 0.001019804, Final residual = 3.9532868e-05, No Iterations 3
time step continuity errors : sum local = 6.1978119e-06, global = -1.030647e-06, cumulative = -4.7662705e-05
DILUPBiCGStab:  Solving for omega, Initial residual = 6.228663e-07, Final residual = 9.0409416e-10, No Iterations 1
smoothSolver:  Solving for k, Initial residual = 0.0016249088, Final residual = 6.1497868e-05, No Iterations 3
bounding k, min: 0 max: 2.7325604 average: 0.098450901
ExecutionTime = 5.65 s  ClockTime = 5 s

Time = 91

smoothSolver:  Solving for Ux, Initial residual = 0.00030143997, Final residual = 2.5485057e-05, No Iterations 6
smoothSolver:  Solving for Uy, Initial residual = 0.0040489856, Final residual = 6.5728467e-05, No Iterations 1
GAMG:  Solving for p, Initial residual = 0.0010636075, Final residual = 3.8283889e-05, No Iterations 3
time step continuity errors : sum local = 6.1263192e-06, global = -1.0352639e-06, cumulative = -4.8697969e-05
DILUPBiCGStab:  Solving for omega, Initial residual = 6.0738989e-07, Final residual = 9.0937831e-10, No Iterations 1
smoothSolver:  Solving for k, Initial residual = 0.0016110989, Final residual = 6.2603642e-05, No Iterations 3
bounding k, min: 0 max: 3.108156 average: 0.11476535
ExecutionTime = 5.71 s  ClockTime = 6 s

Time = 92

smoothSolver:  Solving for Ux, Initial residual = 0.00029601151, Final residual = 2.5014752e-05, No Iterations 6
smoothSolver:  Solving for Uy, Initial residual = 0.0040426867, Final residual = 6.470031e-05, No Iterations 1
GAMG:  Solving for p, Initial residual = 0.0010856394, Final residual = 0.00010478114, No Iterations 2
time step continuity errors : sum local = 1.711706e-05, global = -1.7027906e-06, cumulative = -5.0400759e-05
DILUPBiCGStab:  Solving for omega, Initial residual = 5.9165949e-07, Final residual = 9.3094277e-10, No Iterations 1
smoothSolver:  Solving for k, Initial residual = 0.0016044013, Final residual = 6.423267e-05, No Iterations 3
bounding k, min: 0 max: 3.510083 average: 0.13310664
ExecutionTime = 5.77 s  ClockTime = 6 s

Time = 93

smoothSolver:  Solving for Ux, Initial residual = 0.00029056232, Final residual = 2.4556415e-05, No Iterations 6
smoothSolver:  Solving for Uy, Initial residual = 0.0039892933, Final residual = 6.3817557e-05, No Iterations 1
GAMG:  Solving for p, Initial residual = 0.0012048535, Final residual = 0.0001184711, No Iterations 2
time step continuity errors : sum local = 1.9632346e-05, global = -2.0754276e-06, cumulative = -5.2476187e-05
DILUPBiCGStab:  Solving for omega, Initial residual = 5.7616782e-07, Final residual = 9.3621347e-10, No Iterations 1
smoothSolver:  Solving for k, Initial residual = 0.0015860721, Final residual = 6.5163724e-05, No Iterations 3
bounding k, min: 0 max: 3.9405229 average: 0.15349989
ExecutionTime = 5.82 s  ClockTime = 6 s

Time = 94

smoothSolver:  Solving for Ux, Initial residual = 0.00028553708, Final residual = 2.4109725e-05, No Iterations 6
smoothSolver:  Solving for Uy, Initial residual = 0.0040115128, Final residual = 6.29647e-05, No Iterations 1
GAMG:  Solving for p, Initial residual = 0.001243065, Final residual = 0.00011210075, No Iterations 2
time step continuity errors : sum local = 1.9049884e-05, global = -2.0963787e-06, cumulative = -5.4572566e-05
DILUPBiCGStab:  Solving for omega, Initial residual = 5.6005616e-07, Final residual = 9.5817153e-10, No Iterations 1
smoothSolver:  Solving for k, Initial residual = 0.0015671928, Final residual = 6.627733e-05, No Iterations 3
bounding k, min: 0 max: 4.3910336 average: 0.17601959
ExecutionTime = 5.88 s  ClockTime = 6 s

Time = 95

smoothSolver:  Solving for Ux, Initial residual = 0.00028059423, Final residual = 2.3674295e-05, No Iterations 6
smoothSolver:  Solving for Uy, Initial residual = 0.0040435919, Final residual = 6.2423e-05, No Iterations 1
GAMG:  Solving for p, Initial residual = 0.0012557093, Final residual = 0.00010838079, No Iterations 2
time step continuity errors : sum local = 1.885452e-05, global = -2.0732035e-06, cumulative = -5.6645769e-05
DILUPBiCGStab:  Solving for omega, Initial residual = 5.4527251e-07, Final residual = 9.6320436e-10, No Iterations 1
smoothSolver:  Solving for k, Initial residual = 0.0015508235, Final residual = 6.7094081e-05, No Iterations 3
bounding k, min: 0 max: 4.8583054 average: 0.20062451
ExecutionTime = 5.94 s  ClockTime = 6 s

Time = 96

smoothSolver:  Solving for Ux, Initial residual = 0.00027572096, Final residual = 2.3249766e-05, No Iterations 6
smoothSolver:  Solving for Uy, Initial residual = 0.0040555204, Final residual = 6.1905197e-05, No Iterations 1
GAMG:  Solving for p, Initial residual = 0.0012721523, Final residual = 0.00010611203, No Iterations 2
time step continuity errors : sum local = 1.8854881e-05, global = -2.0284433e-06, cumulative = -5.8674212e-05
DILUPBiCGStab:  Solving for omega, Initial residual = 5.305601e-07, Final residual = 9.7672921e-10, No Iterations 1
smoothSolver:  Solving for k, Initial residual = 0.0015244376, Final residual = 6.7702544e-05, No Iterations 3
bounding k, min: 0 max: 5.3390801 average: 0.22736898
ExecutionTime = 5.99 s  ClockTime = 6 s

Time = 97

smoothSolver:  Solving for Ux, Initial residual = 0.00027096306, Final residual = 2.2835812e-05, No Iterations 6
smoothSolver:  Solving for Uy, Initial residual = 0.0040699765, Final residual = 6.1361674e-05, No Iterations 1
GAMG:  Solving for p, Initial residual = 0.0013406117, Final residual = 0.00010416438, No Iterations 2
time step continuity errors : sum local = 1.8894134e-05, global = -1.966812e-06, cumulative = -6.0641024e-05
DILUPBiCGStab:  Solving for omega, Initial residual = 5.1612203e-07, Final residual = 1.0141775e-09, No Iterations 1
smoothSolver:  Solving for k, Initial residual = 0.0015058538, Final residual = 6.8488754e-05, No Iterations 3
bounding k, min: 0 max: 5.8304281 average: 0.2561913
ExecutionTime = 6.05 s  ClockTime = 6 s

Time = 98

smoothSolver:  Solving for Ux, Initial residual = 0.00026634682, Final residual = 2.2432336e-05, No Iterations 6
smoothSolver:  Solving for Uy, Initial residual = 0.0040876749, Final residual = 6.1170497e-05, No Iterations 1
GAMG:  Solving for p, Initial residual = 0.0013600287, Final residual = 0.00010305772, No Iterations 2
time step continuity errors : sum local = 1.9082091e-05, global = -1.9137855e-06, cumulative = -6.255481e-05
DILUPBiCGStab:  Solving for omega, Initial residual = 5.0328394e-07, Final residual = 9.9053781e-10, No Iterations 1
smoothSolver:  Solving for k, Initial residual = 0.0014709607, Final residual = 6.8234614e-05, No Iterations 3
bounding k, min: 0 max: 6.3291155 average: 0.28693001
ExecutionTime = 6.1 s  ClockTime = 6 s

Time = 99

smoothSolver:  Solving for Ux, Initial residual = 0.0002618667, Final residual = 2.2038978e-05, No Iterations 6
smoothSolver:  Solving for Uy, Initial residual = 0.0041041375, Final residual = 6.0996969e-05, No Iterations 1
GAMG:  Solving for p, Initial residual = 0.0014016622, Final residual = 0.00010277258, No Iterations 2
time step continuity errors : sum local = 1.9422674e-05, global = -1.8891016e-06, cumulative = -6.4443912e-05
DILUPBiCGStab:  Solving for omega, Initial residual = 4.9050396e-07, Final residual = 1.015104e-09, No Iterations 1
smoothSolver:  Solving for k, Initial residual = 0.001426171, Final residual = 6.7397349e-05, No Iterations 3
bounding k, min: 0 max: 6.8488269 average: 0.31946245
ExecutionTime = 6.16 s  ClockTime = 6 s

Time = 100

[...]
smoothSolver:  Solving for k, Initial residual = 3.2880423e-06, Final residual = 2.0280535e-07, No Iterations 3
bounding k, min: -0.00056239982 max: 30.895264 average: 6.3954002
ExecutionTime = 52.91 s  ClockTime = 53 s

Time = 976

smoothSolver:  Solving for Ux, Initial residual = 2.81655e-06, Final residual = 2.3817326e-07, No Iterations 6
smoothSolver:  Solving for Uy, Initial residual = 3.1761159e-05, Final residual = 3.0293726e-06, No Iterations 2
GAMG:  Solving for p, Initial residual = 6.3408327e-06, Final residual = 2.8207787e-07, No Iterations 2
time step continuity errors : sum local = 9.6348362e-07, global = -2.6215371e-07, cumulative = -0.0025238323
DILUPBiCGStab:  Solving for omega, Initial residual = 1.2132509e-09, Final residual = 3.3127199e-11, No Iterations 1
smoothSolver:  Solving for k, Initial residual = 3.2494193e-06, Final residual = 2.0191378e-07, No Iterations 3
bounding k, min: -0.00083143164 max: 30.895244 average: 6.3954406
ExecutionTime = 52.97 s  ClockTime = 53 s

Time = 977

smoothSolver:  Solving for Ux, Initial residual = 2.8013511e-06, Final residual = 2.3687598e-07, No Iterations 6
smoothSolver:  Solving for Uy, Initial residual = 3.1835776e-05, Final residual = 3.0158871e-06, No Iterations 2
GAMG:  Solving for p, Initial residual = 6.2869109e-06, Final residual = 2.9763562e-07, No Iterations 2
time step continuity errors : sum local = 1.0166751e-06, global = -1.9219643e-07, cumulative = -0.0025240245
DILUPBiCGStab:  Solving for omega, Initial residual = 1.207744e-09, Final residual = 3.3687729e-11, No Iterations 1
smoothSolver:  Solving for k, Initial residual = 3.2566068e-06, Final residual = 2.006043e-07, No Iterations 3
bounding k, min: -0.000534594 max: 30.895224 average: 6.3954799
ExecutionTime = 53.03 s  ClockTime = 53 s

Time = 978

smoothSolver:  Solving for Ux, Initial residual = 2.7864842e-06, Final residual = 2.3557695e-07, No Iterations 6
smoothSolver:  Solving for Uy, Initial residual = 3.1482085e-05, Final residual = 3.0059079e-06, No Iterations 2
GAMG:  Solving for p, Initial residual = 6.3094541e-06, Final residual = 2.7935646e-07, No Iterations 2
time step continuity errors : sum local = 9.5434444e-07, global = -2.60583e-07, cumulative = -0.0025242851
DILUPBiCGStab:  Solving for omega, Initial residual = 1.2068518e-09, Final residual = 3.2552006e-11, No Iterations 1
smoothSolver:  Solving for k, Initial residual = 3.2164352e-06, Final residual = 1.9972355e-07, No Iterations 3
bounding k, min: -0.00071349323 max: 30.895203 average: 6.3955194
ExecutionTime = 53.08 s  ClockTime = 53 s

Time = 979

smoothSolver:  Solving for Ux, Initial residual = 2.771445e-06, Final residual = 2.342928e-07, No Iterations 6
smoothSolver:  Solving for Uy, Initial residual = 3.1558338e-05, Final residual = 2.9924998e-06, No Iterations 2
GAMG:  Solving for p, Initial residual = 6.2589117e-06, Final residual = 2.9439128e-07, No Iterations 2
time step continuity errors : sum local = 1.0057585e-06, global = -1.9220587e-07, cumulative = -0.0025244773
DILUPBiCGStab:  Solving for omega, Initial residual = 1.1964799e-09, Final residual = 3.3100206e-11, No Iterations 1
smoothSolver:  Solving for k, Initial residual = 3.2234434e-06, Final residual = 1.9845974e-07, No Iterations 3
bounding k, min: -0.00069260743 max: 30.895183 average: 6.3955578
ExecutionTime = 53.14 s  ClockTime = 53 s

Time = 980

smoothSolver:  Solving for Ux, Initial residual = 2.7567425e-06, Final residual = 2.3300727e-07, No Iterations 6
smoothSolver:  Solving for Uy, Initial residual = 3.1199314e-05, Final residual = 2.9825952e-06, No Iterations 2
GAMG:  Solving for p, Initial residual = 6.2895103e-06, Final residual = 2.772307e-07, No Iterations 2
time step continuity errors : sum local = 9.4723449e-07, global = -2.5795347e-07, cumulative = -0.0025247353
DILUPBiCGStab:  Solving for omega, Initial residual = 1.1938222e-09, Final residual = 3.2441397e-11, No Iterations 1
smoothSolver:  Solving for k, Initial residual = 3.1848038e-06, Final residual = 1.9754646e-07, No Iterations 3
bounding k, min: -0.00095563942 max: 30.895162 average: 6.3955964
ExecutionTime = 53.2 s  ClockTime = 53 s

Time = 981

smoothSolver:  Solving for Ux, Initial residual = 2.7418117e-06, Final residual = 2.3173754e-07, No Iterations 6
smoothSolver:  Solving for Uy, Initial residual = 3.1277427e-05, Final residual = 2.9692862e-06, No Iterations 2
GAMG:  Solving for p, Initial residual = 6.2236695e-06, Final residual = 2.9236498e-07, No Iterations 2
time step continuity errors : sum local = 9.9899532e-07, global = -1.9029701e-07, cumulative = -0.0025249256
DILUPBiCGStab:  Solving for omega, Initial residual = 1.1892554e-09, Final residual = 3.334119e-11, No Iterations 1
smoothSolver:  Solving for k, Initial residual = 3.191903e-06, Final residual = 1.9629692e-07, No Iterations 3
bounding k, min: -0.00040219057 max: 30.895141 average: 6.395634
ExecutionTime = 53.25 s  ClockTime = 53 s

Time = 982

smoothSolver:  Solving for Ux, Initial residual = 2.7272163e-06, Final residual = 2.3046631e-07, No Iterations 6
smoothSolver:  Solving for Uy, Initial residual = 3.0923378e-05, Final residual = 2.9593473e-06, No Iterations 2
GAMG:  Solving for p, Initial residual = 6.2476023e-06, Final residual = 2.7520592e-07, No Iterations 2
time step continuity errors : sum local = 9.4046615e-07, global = -2.5633813e-07, cumulative = -0.0025251819
DILUPBiCGStab:  Solving for omega, Initial residual = 1.1902952e-09, Final residual = 3.2772004e-11, No Iterations 1
smoothSolver:  Solving for k, Initial residual = 3.1538489e-06, Final residual = 1.9541519e-07, No Iterations 3
bounding k, min: -0.00061367064 max: 30.895119 average: 6.3956717
ExecutionTime = 53.31 s  ClockTime = 53 s

Time = 983

smoothSolver:  Solving for Ux, Initial residual = 2.7124878e-06, Final residual = 2.2921009e-07, No Iterations 6
smoothSolver:  Solving for Uy, Initial residual = 3.1002239e-05, Final residual = 2.9460989e-06, No Iterations 2
GAMG:  Solving for p, Initial residual = 6.1882972e-06, Final residual = 2.9120632e-07, No Iterations 2
time step continuity errors : sum local = 9.9519139e-07, global = -1.8699248e-07, cumulative = -0.0025253689
DILUPBiCGStab:  Solving for omega, Initial residual = 1.1821084e-09, Final residual = 3.3279467e-11, No Iterations 1
smoothSolver:  Solving for k, Initial residual = 3.1612621e-06, Final residual = 1.941674e-07, No Iterations 3
bounding k, min: -0.00066387018 max: 30.895098 average: 6.3957085
ExecutionTime = 53.37 s  ClockTime = 53 s

Time = 984

smoothSolver:  Solving for Ux, Initial residual = 2.6980987e-06, Final residual = 2.2795299e-07, No Iterations 6
smoothSolver:  Solving for Uy, Initial residual = 3.0650897e-05, Final residual = 2.9362944e-06, No Iterations 2
GAMG:  Solving for p, Initial residual = 6.2228032e-06, Final residual = 2.7272648e-07, No Iterations 2
time step continuity errors : sum local = 9.3213951e-07, global = -2.5399014e-07, cumulative = -0.0025256229
DILUPBiCGStab:  Solving for omega, Initial residual = 1.1813386e-09, Final residual = 3.2561108e-11, No Iterations 1
smoothSolver:  Solving for k, Initial residual = 3.1216197e-06, Final residual = 1.9328921e-07, No Iterations 3
bounding k, min: -0.0006952832 max: 30.895076 average: 6.3957456
ExecutionTime = 53.42 s  ClockTime = 53 s

Time = 985

smoothSolver:  Solving for Ux, Initial residual = 2.6835052e-06, Final residual = 2.2671085e-07, No Iterations 6
smoothSolver:  Solving for Uy, Initial residual = 3.0731162e-05, Final residual = 2.92309e-06, No Iterations 2
GAMG:  Solving for p, Initial residual = 6.1633561e-06, Final residual = 2.8741393e-07, No Iterations 2
time step continuity errors : sum local = 9.823874e-07, global = -1.8737819e-07, cumulative = -0.0025258103
DILUPBiCGStab:  Solving for omega, Initial residual = 1.1760304e-09, Final residual = 3.344039e-11, No Iterations 1
smoothSolver:  Solving for k, Initial residual = 3.1290801e-06, Final residual = 1.9206028e-07, No Iterations 3
bounding k, min: -0.00021114644 max: 30.895053 average: 6.3957815
ExecutionTime = 53.48 s  ClockTime = 53 s

Time = 986

smoothSolver:  Solving for Ux, Initial residual = 2.6692547e-06, Final residual = 2.2546726e-07, No Iterations 6
smoothSolver:  Solving for Uy, Initial residual = 3.0376617e-05, Final residual = 2.9134188e-06, No Iterations 2
GAMG:  Solving for p, Initial residual = 6.1927664e-06, Final residual = 2.7020376e-07, No Iterations 2
time step continuity errors : sum local = 9.2366109e-07, global = -2.5221796e-07, cumulative = -0.0025260625
DILUPBiCGStab:  Solving for omega, Initial residual = 1.1748882e-09, Final residual = 3.2557441e-11, No Iterations 1
smoothSolver:  Solving for k, Initial residual = 3.0912778e-06, Final residual = 1.9119266e-07, No Iterations 3
bounding k, min: -0.00073586878 max: 30.895031 average: 6.3958176
ExecutionTime = 53.54 s  ClockTime = 53 s

Time = 987

smoothSolver:  Solving for Ux, Initial residual = 2.6548321e-06, Final residual = 2.2423746e-07, No Iterations 6
smoothSolver:  Solving for Uy, Initial residual = 3.0452516e-05, Final residual = 2.9003133e-06, No Iterations 2
GAMG:  Solving for p, Initial residual = 6.1323685e-06, Final residual = 2.8597447e-07, No Iterations 2
time step continuity errors : sum local = 9.7761737e-07, global = -1.8504922e-07, cumulative = -0.0025262475
DILUPBiCGStab:  Solving for omega, Initial residual = 1.1664412e-09, Final residual = 3.3163527e-11, No Iterations 1
smoothSolver:  Solving for k, Initial residual = 3.0988276e-06, Final residual = 1.9000379e-07, No Iterations 3
bounding k, min: -0.00069363365 max: 30.895008 average: 6.3958527
ExecutionTime = 53.59 s  ClockTime = 53 s

Time = 988

smoothSolver:  Solving for Ux, Initial residual = 2.6407187e-06, Final residual = 2.2300612e-07, No Iterations 6
smoothSolver:  Solving for Uy, Initial residual = 3.0101838e-05, Final residual = 2.8906211e-06, No Iterations 2
GAMG:  Solving for p, Initial residual = 6.1658023e-06, Final residual = 2.6862559e-07, No Iterations 2
time step continuity errors : sum local = 9.1840648e-07, global = -2.4965076e-07, cumulative = -0.0025264972
DILUPBiCGStab:  Solving for omega, Initial residual = 1.165999e-09, Final residual = 3.2376074e-11, No Iterations 1
smoothSolver:  Solving for k, Initial residual = 3.0611357e-06, Final residual = 1.8912394e-07, No Iterations 3
bounding k, min: -0.0007833903 max: 30.894985 average: 6.3958881
ExecutionTime = 53.65 s  ClockTime = 54 s

Time = 989

smoothSolver:  Solving for Ux, Initial residual = 2.626402e-06, Final residual = 2.2178858e-07, No Iterations 6
smoothSolver:  Solving for Uy, Initial residual = 3.0188127e-05, Final residual = 2.8775842e-06, No Iterations 2
GAMG:  Solving for p, Initial residual = 6.0909734e-06, Final residual = 2.8442065e-07, No Iterations 2
time step continuity errors : sum local = 9.7245201e-07, global = -1.8214857e-07, cumulative = -0.0025266793
DILUPBiCGStab:  Solving for omega, Initial residual = 1.1610906e-09, Final residual = 3.3163272e-11, No Iterations 1
smoothSolver:  Solving for k, Initial residual = 3.0689154e-06, Final residual = 1.8793896e-07, No Iterations 3
bounding k, min: -0.00049095462 max: 30.894962 average: 6.3959224
ExecutionTime = 53.71 s  ClockTime = 54 s

Time = 990

smoothSolver:  Solving for Ux, Initial residual = 2.6124333e-06, Final residual = 2.2057004e-07, No Iterations 6
smoothSolver:  Solving for Uy, Initial residual = 2.9840036e-05, Final residual = 2.8679879e-06, No Iterations 2
GAMG:  Solving for p, Initial residual = 6.1232113e-06, Final residual = 2.6575058e-07, No Iterations 2
time step continuity errors : sum local = 9.0871562e-07, global = -2.4804275e-07, cumulative = -0.0025269274
DILUPBiCGStab:  Solving for omega, Initial residual = 1.1609315e-09, Final residual = 3.2345831e-11, No Iterations 1
smoothSolver:  Solving for k, Initial residual = 3.0299879e-06, Final residual = 1.8703163e-07, No Iterations 3
bounding k, min: -0.00068607883 max: 30.894938 average: 6.395957
ExecutionTime = 53.77 s  ClockTime = 54 s

Time = 991

smoothSolver:  Solving for Ux, Initial residual = 2.5983438e-06, Final residual = 2.1936472e-07, No Iterations 6
smoothSolver:  Solving for Uy, Initial residual = 2.9922475e-05, Final residual = 2.8550292e-06, No Iterations 2
GAMG:  Solving for p, Initial residual = 6.0712791e-06, Final residual = 2.8110527e-07, No Iterations 2
time step continuity errors : sum local = 9.6126396e-07, global = -1.8203494e-07, cumulative = -0.0025271094
DILUPBiCGStab:  Solving for omega, Initial residual = 1.151955e-09, Final residual = 3.3028719e-11, No Iterations 1
smoothSolver:  Solving for k, Initial residual = 3.038087e-06, Final residual = 1.8586736e-07, No Iterations 3
bounding k, min: -0.00057436703 max: 30.894914 average: 6.3959908
ExecutionTime = 53.83 s  ClockTime = 54 s

Time = 992

smoothSolver:  Solving for Ux, Initial residual = 2.5845881e-06, Final residual = 2.1815857e-07, No Iterations 6
smoothSolver:  Solving for Uy, Initial residual = 2.9574636e-05, Final residual = 2.8455748e-06, No Iterations 2
GAMG:  Solving for p, Initial residual = 6.1133672e-06, Final residual = 2.6366348e-07, No Iterations 2
time step continuity errors : sum local = 9.0171355e-07, global = -2.452285e-07, cumulative = -0.0025273547
DILUPBiCGStab:  Solving for omega, Initial residual = 1.1513804e-09, Final residual = 3.2062987e-11, No Iterations 1
smoothSolver:  Solving for k, Initial residual = 3.0008062e-06, Final residual = 1.850297e-07, No Iterations 3
bounding k, min: -0.00085492255 max: 30.89489 average: 6.3960248
ExecutionTime = 53.89 s  ClockTime = 54 s

Time = 993

smoothSolver:  Solving for Ux, Initial residual = 2.570585e-06, Final residual = 2.1696556e-07, No Iterations 6
smoothSolver:  Solving for Uy, Initial residual = 2.9659344e-05, Final residual = 2.8326662e-06, No Iterations 2
GAMG:  Solving for p, Initial residual = 6.0485523e-06, Final residual = 2.7936868e-07, No Iterations 2
time step continuity errors : sum local = 9.5546727e-07, global = -1.8008116e-07, cumulative = -0.0025275347
DILUPBiCGStab:  Solving for omega, Initial residual = 1.1459791e-09, Final residual = 3.2654715e-11, No Iterations 1
smoothSolver:  Solving for k, Initial residual = 3.0089997e-06, Final residual = 1.8382391e-07, No Iterations 3
bounding k, min: -0.00054125233 max: 30.894865 average: 6.3960578
ExecutionTime = 53.94 s  ClockTime = 54 s

Time = 994

smoothSolver:  Solving for Ux, Initial residual = 2.5569257e-06, Final residual = 2.1577165e-07, No Iterations 6
smoothSolver:  Solving for Uy, Initial residual = 2.9311421e-05, Final residual = 2.8232396e-06, No Iterations 2
GAMG:  Solving for p, Initial residual = 6.0894567e-06, Final residual = 2.6168722e-07, No Iterations 2
time step continuity errors : sum local = 8.9508741e-07, global = -2.4361146e-07, cumulative = -0.0025277783
DILUPBiCGStab:  Solving for omega, Initial residual = 1.1456869e-09, Final residual = 3.2024737e-11, No Iterations 1
smoothSolver:  Solving for k, Initial residual = 2.9722477e-06, Final residual = 1.8301284e-07, No Iterations 3
bounding k, min: -0.00070888703 max: 30.89484 average: 6.396091
ExecutionTime = 54 s  ClockTime = 54 s

Time = 995

smoothSolver:  Solving for Ux, Initial residual = 2.5431305e-06, Final residual = 2.1459091e-07, No Iterations 6
smoothSolver:  Solving for Uy, Initial residual = 2.9400806e-05, Final residual = 2.8104134e-06, No Iterations 2
GAMG:  Solving for p, Initial residual = 6.0195148e-06, Final residual = 2.7850694e-07, No Iterations 2
time step continuity errors : sum local = 9.5265781e-07, global = -1.7704761e-07, cumulative = -0.0025279554
DILUPBiCGStab:  Solving for omega, Initial residual = 1.1380088e-09, Final residual = 3.2845198e-11, No Iterations 1
smoothSolver:  Solving for k, Initial residual = 2.9804913e-06, Final residual = 1.8181874e-07, No Iterations 3
bounding k, min: -0.000679803 max: 30.894815 average: 6.396123
ExecutionTime = 54.06 s  ClockTime = 54 s

Time = 996

smoothSolver:  Solving for Ux, Initial residual = 2.5295864e-06, Final residual = 2.1341027e-07, No Iterations 6
smoothSolver:  Solving for Uy, Initial residual = 2.905084e-05, Final residual = 2.801051e-06, No Iterations 2
GAMG:  Solving for p, Initial residual = 6.0656569e-06, Final residual = 2.5961314e-07, No Iterations 2
time step continuity errors : sum local = 8.8812279e-07, global = -2.4141264e-07, cumulative = -0.0025281968
DILUPBiCGStab:  Solving for omega, Initial residual = 1.1365346e-09, Final residual = 3.2156095e-11, No Iterations 1
smoothSolver:  Solving for k, Initial residual = 2.9416239e-06, Final residual = 1.8100758e-07, No Iterations 3
bounding k, min: -0.00094941024 max: 30.894789 average: 6.3961555
ExecutionTime = 54.12 s  ClockTime = 54 s

Time = 997

smoothSolver:  Solving for Ux, Initial residual = 2.5158763e-06, Final residual = 2.122428e-07, No Iterations 6
smoothSolver:  Solving for Uy, Initial residual = 2.9143188e-05, Final residual = 2.7883193e-06, No Iterations 2
GAMG:  Solving for p, Initial residual = 5.9931275e-06, Final residual = 2.7516132e-07, No Iterations 2
time step continuity errors : sum local = 9.413535e-07, global = -1.7760615e-07, cumulative = -0.0025283744
DILUPBiCGStab:  Solving for omega, Initial residual = 1.1309388e-09, Final residual = 3.2751723e-11, No Iterations 1
smoothSolver:  Solving for k, Initial residual = 2.9497465e-06, Final residual = 1.798496e-07, No Iterations 3
bounding k, min: -0.00042388835 max: 30.894764 average: 6.396187
ExecutionTime = 54.17 s  ClockTime = 54 s

Time = 998

smoothSolver:  Solving for Ux, Initial residual = 2.5024333e-06, Final residual = 2.1107572e-07, No Iterations 6
smoothSolver:  Solving for Uy, Initial residual = 2.8796253e-05, Final residual = 2.7789541e-06, No Iterations 2
GAMG:  Solving for p, Initial residual = 6.0245838e-06, Final residual = 2.5735305e-07, No Iterations 2
time step continuity errors : sum local = 8.8051879e-07, global = -2.4014354e-07, cumulative = -0.0025286146
DILUPBiCGStab:  Solving for omega, Initial residual = 1.1314869e-09, Final residual = 3.1975914e-11, No Iterations 1
smoothSolver:  Solving for k, Initial residual = 2.9129499e-06, Final residual = 1.7906698e-07, No Iterations 3
bounding k, min: -0.00062659082 max: 30.894738 average: 6.3962186
ExecutionTime = 54.23 s  ClockTime = 54 s

Time = 999

smoothSolver:  Solving for Ux, Initial residual = 2.4888862e-06, Final residual = 2.0992121e-07, No Iterations 6
smoothSolver:  Solving for Uy, Initial residual = 2.8881133e-05, Final residual = 2.7662616e-06, No Iterations 2
GAMG:  Solving for p, Initial residual = 5.9605392e-06, Final residual = 2.7355266e-07, No Iterations 2
time step continuity errors : sum local = 9.3598367e-07, global = -1.7560113e-07, cumulative = -0.0025287902
DILUPBiCGStab:  Solving for omega, Initial residual = 1.1238717e-09, Final residual = 3.2843221e-11, No Iterations 1
smoothSolver:  Solving for k, Initial residual = 2.921461e-06, Final residual = 1.7787891e-07, No Iterations 3
bounding k, min: -0.000671697 max: 30.894711 average: 6.3962494
ExecutionTime = 54.28 s  ClockTime = 54 s

Time = 1000

smoothSolver:  Solving for Ux, Initial residual = 2.4756759e-06, Final residual = 2.0876632e-07, No Iterations 6
smoothSolver:  Solving for Uy, Initial residual = 2.854104e-05, Final residual = 2.7570295e-06, No Iterations 2
GAMG:  Solving for p, Initial residual = 6.0141671e-06, Final residual = 2.5587584e-07, No Iterations 2
time step continuity errors : sum local = 8.755888e-07, global = -2.3783112e-07, cumulative = -0.002529028
DILUPBiCGStab:  Solving for omega, Initial residual = 1.123561e-09, Final residual = 3.2043673e-11, No Iterations 1
smoothSolver:  Solving for k, Initial residual = 2.8852159e-06, Final residual = 1.7710896e-07, No Iterations 3
bounding k, min: -0.00062124874 max: 30.894685 average: 6.3962804
ExecutionTime = 54.49 s  ClockTime = 54 s

End

