/*---------------------------------------------------------------------------*\
| =========                 |                                                 |
| \\      /  F ield         | OpenFOAM: The Open Source CFD Toolbox           |
|  \\    /   O peration     | Version:  v1912                                 |
|   \\  /    A nd           | Website:  www.openfoam.com                      |
|    \\/     M anipulation  |                                                 |
\*---------------------------------------------------------------------------*/
Build  : _f3950763fe-20191219 OPENFOAM=1912
Arch   : "LSB;label=32;scalar=64"
Exec   : rhoSimpleFoam
Date   : Jun 06 2020
Time   : 20:08:29
Host   : mx
PID    : 14451
I/O    : uncollated
Case   : /home/max/OpenFOAM/max-v1912/run/turbFlatPlate_rhoSimpleFoam
nProcs : 1
trapFpe: Floating point exception trapping enabled (FOAM_SIGFPE).
fileModificationChecking : Monitoring run-time modified files using timeStampMaster (fileModificationSkew 10)
allowSystemOperations : Allowing user-supplied system call operations

// * * * * * * * * * * * * * * * * * * * * * * * * * * * * * * * * * * * * * //
Create time

Create mesh for time = 0


SIMPLE: convergence criteria
    field p	 tolerance 0.0001
    field U	 tolerance 0.0001
    field "(k|omega|e)"	 tolerance 0.0001

Reading thermophysical properties

Selecting thermodynamics package 
{
    type            hePsiThermo;
    mixture         pureMixture;
    transport       const;
    thermo          hConst;
    equationOfState perfectGas;
    specie          specie;
    energy          sensibleInternalEnergy;
}

Reading field U

Reading/calculating face flux field phi

pressureControl
    pMax 205656
    pMin 10000

Creating turbulence model

Selecting turbulence model type RAS
Selecting RAS turbulence model kOmegaSST
Selecting patchDistMethod meshWave
RAS
{
    RASModel        kOmegaSST;
    turbulence      on;
    printCoeffs     on;
    alphaK1         0.85;
    alphaK2         1;
    alphaOmega1     0.5;
    alphaOmega2     0.856;
    gamma1          0.55555556;
    gamma2          0.44;
    beta1           0.075;
    beta2           0.0828;
    betaStar        0.09;
    a1              0.31;
    b1              1;
    c1              10;
    F3              false;
    decayControl    false;
    kInf            0;
    omegaInf        0;
}

No MRF models present

Creating finite volume options from "system/fvOptions"

Selecting finite volume options type limitTemperature
    Source: limitT
    - selecting all cells
    - selected 209825 cell(s) with volume 0.23333333

Starting time loop

wallShearStress wallShearStress:
    processing all wall patches

Time = 1

DILUPBiCGStab:  Solving for Ux, Initial residual = 0.99999998, Final residual = 0.00016638189, No Iterations 1
DILUPBiCGStab:  Solving for Uy, Initial residual = 0.99999995, Final residual = 0.00019514539, No Iterations 1
DILUPBiCGStab:  Solving for e, Initial residual = 0.99999989, Final residual = 0.00094720864, No Iterations 1
GAMG:  Solving for p, Initial residual = 1, Final residual = 0.0090993455, No Iterations 24
time step continuity errors : sum local = 0.011286453, global = -0.0013592003, cumulative = -0.0013592003
DILUPBiCGStab:  Solving for omega, Initial residual = 1, Final residual = 0.0027407186, No Iterations 1
DILUPBiCGStab:  Solving for k, Initial residual = 1, Final residual = 3.3101595e-06, No Iterations 1
ExecutionTime = 1.6 s  ClockTime = 2 s

Time = 2

DILUPBiCGStab:  Solving for Ux, Initial residual = 0.2530098, Final residual = 3.8975686e-05, No Iterations 1
DILUPBiCGStab:  Solving for Uy, Initial residual = 0.43041787, Final residual = 0.00067868428, No Iterations 1
DILUPBiCGStab:  Solving for e, Initial residual = 0.72911011, Final residual = 0.0017206451, No Iterations 1
GAMG:  Solving for p, Initial residual = 0.11312293, Final residual = 0.0011150975, No Iterations 17
time step continuity errors : sum local = 0.0094588969, global = 0.0010808622, cumulative = -0.00027833812
DILUPBiCGStab:  Solving for omega, Initial residual = 0.53670549, Final residual = 1.0755813e-08, No Iterations 1
DILUPBiCGStab:  Solving for k, Initial residual = 0.67073317, Final residual = 8.4619807e-06, No Iterations 1
ExecutionTime = 2.14 s  ClockTime = 2 s

Time = 3

DILUPBiCGStab:  Solving for Ux, Initial residual = 0.10813285, Final residual = 1.9319253e-05, No Iterations 1
DILUPBiCGStab:  Solving for Uy, Initial residual = 0.17706664, Final residual = 0.00022334523, No Iterations 1
DILUPBiCGStab:  Solving for e, Initial residual = 0.24234833, Final residual = 0.000594201, No Iterations 1
GAMG:  Solving for p, Initial residual = 0.23938825, Final residual = 0.002200163, No Iterations 19
time step continuity errors : sum local = 0.014156513, global = 0.0018209042, cumulative = 0.001542566
DILUPBiCGStab:  Solving for omega, Initial residual = 0.51291541, Final residual = 1.0167771e-07, No Iterations 1
DILUPBiCGStab:  Solving for k, Initial residual = 0.59354268, Final residual = 7.0322169e-05, No Iterations 1
ExecutionTime = 2.71 s  ClockTime = 3 s

Time = 4

DILUPBiCGStab:  Solving for Ux, Initial residual = 0.042826373, Final residual = 1.0626346e-05, No Iterations 1
DILUPBiCGStab:  Solving for Uy, Initial residual = 0.26744521, Final residual = 0.000235916, No Iterations 1
DILUPBiCGStab:  Solving for e, Initial residual = 0.11399142, Final residual = 0.0002802953, No Iterations 1
GAMG:  Solving for p, Initial residual = 0.42498493, Final residual = 0.0041082175, No Iterations 19
time step continuity errors : sum local = 0.011751118, global = 0.0015910574, cumulative = 0.0031336234
DILUPBiCGStab:  Solving for omega, Initial residual = 0.36140712, Final residual = 7.6442017e-07, No Iterations 1
DILUPBiCGStab:  Solving for k, Initial residual = 0.19213961, Final residual = 0.00012488241, No Iterations 1
ExecutionTime = 3.28 s  ClockTime = 3 s

Time = 5

DILUPBiCGStab:  Solving for Ux, Initial residual = 0.027089705, Final residual = 7.9546328e-06, No Iterations 1
DILUPBiCGStab:  Solving for Uy, Initial residual = 0.19941109, Final residual = 0.00012564335, No Iterations 1
DILUPBiCGStab:  Solving for e, Initial residual = 0.095620875, Final residual = 0.00020325055, No Iterations 1
GAMG:  Solving for p, Initial residual = 0.20696905, Final residual = 0.0019215888, No Iterations 27
time step continuity errors : sum local = 0.0076574886, global = 0.00078537602, cumulative = 0.0039189995
DILUPBiCGStab:  Solving for omega, Initial residual = 0.056535773, Final residual = 2.0807618e-06, No Iterations 1
DILUPBiCGStab:  Solving for k, Initial residual = 0.077897501, Final residual = 0.00010209534, No Iterations 1
ExecutionTime = 3.96 s  ClockTime = 4 s

Time = 6

DILUPBiCGStab:  Solving for Ux, Initial residual = 0.016065864, Final residual = 5.9590141e-06, No Iterations 1
DILUPBiCGStab:  Solving for Uy, Initial residual = 0.10288637, Final residual = 0.00015567579, No Iterations 1
DILUPBiCGStab:  Solving for e, Initial residual = 0.074866515, Final residual = 0.00016845153, No Iterations 1
GAMG:  Solving for p, Initial residual = 0.10644215, Final residual = 0.0010495596, No Iterations 23
time step continuity errors : sum local = 0.0049842346, global = -0.00067899055, cumulative = 0.0032400089
DILUPBiCGStab:  Solving for omega, Initial residual = 0.014791732, Final residual = 1.0187475e-06, No Iterations 1
DILUPBiCGStab:  Solving for k, Initial residual = 0.04569143, Final residual = 9.0610929e-05, No Iterations 1
ExecutionTime = 4.58 s  ClockTime = 5 s

Time = 7

DILUPBiCGStab:  Solving for Ux, Initial residual = 0.010985913, Final residual = 4.9151658e-06, No Iterations 1
DILUPBiCGStab:  Solving for Uy, Initial residual = 0.17552871, Final residual = 0.00012062296, No Iterations 1
DILUPBiCGStab:  Solving for e, Initial residual = 0.059627674, Final residual = 0.00013994235, No Iterations 1
GAMG:  Solving for p, Initial residual = 0.065161746, Final residual = 0.00062688927, No Iterations 31
time step continuity errors : sum local = 0.0026706795, global = -0.00046082032, cumulative = 0.0027791886
DILUPBiCGStab:  Solving for omega, Initial residual = 0.0054621276, Final residual = 3.9953148e-07, No Iterations 1
DILUPBiCGStab:  Solving for k, Initial residual = 0.034891899, Final residual = 8.22394e-05, No Iterations 1
ExecutionTime = 5.3 s  ClockTime = 6 s

Time = 8

DILUPBiCGStab:  Solving for Ux, Initial residual = 0.007339046, Final residual = 3.7920548e-06, No Iterations 1
DILUPBiCGStab:  Solving for Uy, Initial residual = 0.13676906, Final residual = 8.8979236e-05, No Iterations 1
DILUPBiCGStab:  Solving for e, Initial residual = 0.050475728, Final residual = 0.00011488451, No Iterations 1
GAMG:  Solving for p, Initial residual = 0.043200105, Final residual = 0.00041319933, No Iterations 45
time step continuity errors : sum local = 0.0015995837, global = -0.00022758845, cumulative = 0.0025516002
DILUPBiCGStab:  Solving for omega, Initial residual = 0.0020453496, Final residual = 1.9431237e-07, No Iterations 1
DILUPBiCGStab:  Solving for k, Initial residual = 0.030625816, Final residual = 7.776173e-05, No Iterations 1
ExecutionTime = 6.2 s  ClockTime = 6 s

Time = 9

DILUPBiCGStab:  Solving for Ux, Initial residual = 0.0056713922, Final residual = 3.1330603e-06, No Iterations 1
DILUPBiCGStab:  Solving for Uy, Initial residual = 0.060701387, Final residual = 7.8235356e-05, No Iterations 1
DILUPBiCGStab:  Solving for e, Initial residual = 0.04503377, Final residual = 9.7646589e-05, No Iterations 1
GAMG:  Solving for p, Initial residual = 0.029907705, Final residual = 0.00029214482, No Iterations 39
time step continuity errors : sum local = 0.0011022569, global = -0.00013129867, cumulative = 0.0024203015
DILUPBiCGStab:  Solving for omega, Initial residual = 0.00070022153, Final residual = 1.3025909e-07, No Iterations 1
DILUPBiCGStab:  Solving for k, Initial residual = 0.028187678, Final residual = 7.288342e-05, No Iterations 1
ExecutionTime = 7.03 s  ClockTime = 7 s

Time = 10

DILUPBiCGStab:  Solving for Ux, Initial residual = 0.0047482748, Final residual = 2.7191786e-06, No Iterations 1
DILUPBiCGStab:  Solving for Uy, Initial residual = 0.059238429, Final residual = 4.411865e-05, No Iterations 1
DILUPBiCGStab:  Solving for e, Initial residual = 0.040345882, Final residual = 8.5772364e-05, No Iterations 1
GAMG:  Solving for p, Initial residual = 0.020810586, Final residual = 0.00020397033, No Iterations 42
time step continuity errors : sum local = 0.00076549422, global = 0.00011859589, cumulative = 0.0025388974
DILUPBiCGStab:  Solving for omega, Initial residual = 0.00033919834, Final residual = 9.6472233e-08, No Iterations 1
DILUPBiCGStab:  Solving for k, Initial residual = 0.026451469, Final residual = 6.8559104e-05, No Iterations 1
ExecutionTime = 7.9 s  ClockTime = 8 s

Time = 11

DILUPBiCGStab:  Solving for Ux, Initial residual = 0.003787962, Final residual = 2.3163376e-06, No Iterations 1
DILUPBiCGStab:  Solving for Uy, Initial residual = 0.030608408, Final residual = 2.6772882e-05, No Iterations 1
DILUPBiCGStab:  Solving for e, Initial residual = 0.03620131, Final residual = 7.6257793e-05, No Iterations 1
GAMG:  Solving for p, Initial residual = 0.016756536, Final residual = 0.00015961858, No Iterations 42
time step continuity errors : sum local = 0.00060046729, global = 9.3255424e-05, cumulative = 0.0026321528
DILUPBiCGStab:  Solving for omega, Initial residual = 8.2525908e-05, Final residual = 8.1541331e-08, No Iterations 1
DILUPBiCGStab:  Solving for k, Initial residual = 0.024994825, Final residual = 6.4796561e-05, No Iterations 1
ExecutionTime = 8.77 s  ClockTime = 9 s

Time = 12

DILUPBiCGStab:  Solving for Ux, Initial residual = 0.003260405, Final residual = 2.0906932e-06, No Iterations 1
DILUPBiCGStab:  Solving for Uy, Initial residual = 0.014465096, Final residual = 1.6677881e-05, No Iterations 1
DILUPBiCGStab:  Solving for e, Initial residual = 0.033127838, Final residual = 6.8369319e-05, No Iterations 1
GAMG:  Solving for p, Initial residual = 0.014905764, Final residual = 0.00014449199, No Iterations 29
time step continuity errors : sum local = 0.00053414363, global = -6.0958902e-05, cumulative = 0.0025711939
DILUPBiCGStab:  Solving for omega, Initial residual = 8.6374242e-05, Final residual = 7.1521667e-08, No Iterations 1
DILUPBiCGStab:  Solving for k, Initial residual = 0.02371429, Final residual = 6.1493199e-05, No Iterations 1
ExecutionTime = 9.46 s  ClockTime = 10 s

Time = 13

DILUPBiCGStab:  Solving for Ux, Initial residual = 0.0028925129, Final residual = 1.9145553e-06, No Iterations 1
DILUPBiCGStab:  Solving for Uy, Initial residual = 0.015749485, Final residual = 1.3733819e-05, No Iterations 1
DILUPBiCGStab:  Solving for e, Initial residual = 0.03071827, Final residual = 6.1862881e-05, No Iterations 1
GAMG:  Solving for p, Initial residual = 0.013339179, Final residual = 0.00012624335, No Iterations 25
time step continuity errors : sum local = 0.00045309361, global = -4.6643089e-05, cumulative = 0.0025245508
DILUPBiCGStab:  Solving for omega, Initial residual = 2.674666e-05, Final residual = 6.7033143e-08, No Iterations 1
DILUPBiCGStab:  Solving for k, Initial residual = 0.022553236, Final residual = 5.8522193e-05, No Iterations 1
ExecutionTime = 10.12 s  ClockTime = 10 s

Time = 14

DILUPBiCGStab:  Solving for Ux, Initial residual = 0.0026167707, Final residual = 1.7874844e-06, No Iterations 1
DILUPBiCGStab:  Solving for Uy, Initial residual = 0.011695115, Final residual = 1.3947949e-05, No Iterations 1
DILUPBiCGStab:  Solving for e, Initial residual = 0.028647831, Final residual = 5.6494249e-05, No Iterations 1
GAMG:  Solving for p, Initial residual = 0.011642495, Final residual = 0.00011586465, No Iterations 23
time step continuity errors : sum local = 0.00040451436, global = -3.8372474e-05, cumulative = 0.0024861783
DILUPBiCGStab:  Solving for omega, Initial residual = 4.2716701e-05, Final residual = 6.2920753e-08, No Iterations 1
DILUPBiCGStab:  Solving for k, Initial residual = 0.021492344, Final residual = 5.5862661e-05, No Iterations 1
ExecutionTime = 10.74 s  ClockTime = 11 s

Time = 15

DILUPBiCGStab:  Solving for Ux, Initial residual = 0.0024246676, Final residual = 1.7076878e-06, No Iterations 1
DILUPBiCGStab:  Solving for Uy, Initial residual = 0.0093965463, Final residual = 1.6101883e-05, No Iterations 1
DILUPBiCGStab:  Solving for e, Initial residual = 0.026914772, Final residual = 5.197479e-05, No Iterations 1
GAMG:  Solving for p, Initial residual = 0.010396512, Final residual = 9.8361843e-05, No Iterations 21
time step continuity errors : sum local = 0.00033801679, global = -3.6860815e-05, cumulative = 0.0024493175
DILUPBiCGStab:  Solving for omega, Initial residual = 3.1153235e-05, Final residual = 6.0727096e-08, No Iterations 1
DILUPBiCGStab:  Solving for k, Initial residual = 0.020516185, Final residual = 5.3459555e-05, No Iterations 1
ExecutionTime = 11.33 s  ClockTime = 12 s

Time = 16

DILUPBiCGStab:  Solving for Ux, Initial residual = 0.0023257517, Final residual = 1.6771855e-06, No Iterations 1
DILUPBiCGStab:  Solving for Uy, Initial residual = 0.0077222329, Final residual = 1.4563423e-05, No Iterations 1
DILUPBiCGStab:  Solving for e, Initial residual = 0.025466109, Final residual = 4.8109195e-05, No Iterations 1
GAMG:  Solving for p, Initial residual = 0.0096468435, Final residual = 9.0614527e-05, No Iterations 20
time step continuity errors : sum local = 0.00030741649, global = -1.7638077e-05, cumulative = 0.0024316794
DILUPBiCGStab:  Solving for omega, Initial residual = 3.0691793e-05, Final residual = 5.8814572e-08, No Iterations 1
DILUPBiCGStab:  Solving for k, Initial residual = 0.01961546, Final residual = 5.1279006e-05, No Iterations 1
ExecutionTime = 11.93 s  ClockTime = 12 s

Time = 17

DILUPBiCGStab:  Solving for Ux, Initial residual = 0.0022555705, Final residual = 1.6590932e-06, No Iterations 1
DILUPBiCGStab:  Solving for Uy, Initial residual = 0.0061498444, Final residual = 1.1971786e-05, No Iterations 1
DILUPBiCGStab:  Solving for e, Initial residual = 0.024188754, Final residual = 4.4765491e-05, No Iterations 1
GAMG:  Solving for p, Initial residual = 0.0091164695, Final residual = 8.419976e-05, No Iterations 16
time step continuity errors : sum local = 0.00028221548, global = -2.7779779e-05, cumulative = 0.0024038997
DILUPBiCGStab:  Solving for omega, Initial residual = 2.6690645e-05, Final residual = 5.7578324e-08, No Iterations 1
DILUPBiCGStab:  Solving for k, Initial residual = 0.01878184, Final residual = 4.9288769e-05, No Iterations 1
ExecutionTime = 12.47 s  ClockTime = 13 s

Time = 18

DILUPBiCGStab:  Solving for Ux, Initial residual = 0.0021931289, Final residual = 1.6412969e-06, No Iterations 1
DILUPBiCGStab:  Solving for Uy, Initial residual = 0.0047198777, Final residual = 1.0024656e-05, No Iterations 1
DILUPBiCGStab:  Solving for e, Initial residual = 0.023055744, Final residual = 4.1840757e-05, No Iterations 1
GAMG:  Solving for p, Initial residual = 0.0087800543, Final residual = 8.0589067e-05, No Iterations 16
time step continuity errors : sum local = 0.00026696024, global = -2.7329432e-05, cumulative = 0.0023765702
DILUPBiCGStab:  Solving for omega, Initial residual = 2.456005e-05, Final residual = 5.643128e-08, No Iterations 1
DILUPBiCGStab:  Solving for k, Initial residual = 0.018007787, Final residual = 4.7457385e-05, No Iterations 1
ExecutionTime = 13.02 s  ClockTime = 13 s

Time = 19

DILUPBiCGStab:  Solving for Ux, Initial residual = 0.0021397947, Final residual = 1.6251403e-06, No Iterations 1
DILUPBiCGStab:  Solving for Uy, Initial residual = 0.0039685372, Final residual = 8.9230651e-06, No Iterations 1
DILUPBiCGStab:  Solving for e, Initial residual = 0.022074725, Final residual = 3.9278104e-05, No Iterations 1
GAMG:  Solving for p, Initial residual = 0.0085166061, Final residual = 8.2292904e-05, No Iterations 15
time step continuity errors : sum local = 0.0002695048, global = 1.6693069e-05, cumulative = 0.0023932633
DILUPBiCGStab:  Solving for omega, Initial residual = 2.2365397e-05, Final residual = 5.5565847e-08, No Iterations 1
DILUPBiCGStab:  Solving for k, Initial residual = 0.017287619, Final residual = 4.5768202e-05, No Iterations 1
ExecutionTime = 13.55 s  ClockTime = 14 s

Time = 20

DILUPBiCGStab:  Solving for Ux, Initial residual = 0.0020964512, Final residual = 1.6127453e-06, No Iterations 1
DILUPBiCGStab:  Solving for Uy, Initial residual = 0.0037788746, Final residual = 8.4829353e-06, No Iterations 1
DILUPBiCGStab:  Solving for e, Initial residual = 0.021229687, Final residual = 3.7016245e-05, No Iterations 1
GAMG:  Solving for p, Initial residual = 0.0083414062, Final residual = 8.0013116e-05, No Iterations 14
time step continuity errors : sum local = 0.00025909916, global = -2.4494571e-05, cumulative = 0.0023687687
DILUPBiCGStab:  Solving for omega, Initial residual = 2.0946654e-05, Final residual = 5.4829603e-08, No Iterations 1
DILUPBiCGStab:  Solving for k, Initial residual = 0.016615713, Final residual = 4.420559e-05, No Iterations 1
ExecutionTime = 14.06 s  ClockTime = 14 s

Time = 21

DILUPBiCGStab:  Solving for Ux, Initial residual = 0.0020589251, Final residual = 1.6014051e-06, No Iterations 1
DILUPBiCGStab:  Solving for Uy, Initial residual = 0.0037536761, Final residual = 8.1808457e-06, No Iterations 1
DILUPBiCGStab:  Solving for e, Initial residual = 0.020498849, Final residual = 3.5004513e-05, No Iterations 1
GAMG:  Solving for p, Initial residual = 0.0082445654, Final residual = 7.3402716e-05, No Iterations 17
time step continuity errors : sum local = 0.00023506473, global = -8.6886578e-06, cumulative = 0.0023600801
DILUPBiCGStab:  Solving for omega, Initial residual = 1.9652503e-05, Final residual = 5.4199327e-08, No Iterations 1
DILUPBiCGStab:  Solving for k, Initial residual = 0.015987714, Final residual = 4.2766104e-05, No Iterations 1
ExecutionTime = 14.61 s  ClockTime = 15 s

Time = 22

DILUPBiCGStab:  Solving for Ux, Initial residual = 0.0020290644, Final residual = 1.5933281e-06, No Iterations 1
DILUPBiCGStab:  Solving for Uy, Initial residual = 0.0036957518, Final residual = 7.6988377e-06, No Iterations 1
DILUPBiCGStab:  Solving for e, Initial residual = 0.019845099, Final residual = 3.3199232e-05, No Iterations 1
GAMG:  Solving for p, Initial residual = 0.0081665244, Final residual = 7.3624387e-05, No Iterations 15
time step continuity errors : sum local = 0.00023318972, global = -2.4920787e-05, cumulative = 0.0023351593
DILUPBiCGStab:  Solving for omega, Initial residual = 1.8497394e-05, Final residual = 5.3745319e-08, No Iterations 1
DILUPBiCGStab:  Solving for k, Initial residual = 0.015399491, Final residual = 4.1427172e-05, No Iterations 1
ExecutionTime = 15.17 s  ClockTime = 15 s

Time = 23

DILUPBiCGStab:  Solving for Ux, Initial residual = 0.0020005632, Final residual = 1.583378e-06, No Iterations 1
DILUPBiCGStab:  Solving for Uy, Initial residual = 0.0033520089, Final residual = 7.0355144e-06, No Iterations 1
DILUPBiCGStab:  Solving for e, Initial residual = 0.019255238, Final residual = 3.1569243e-05, No Iterations 1
GAMG:  Solving for p, Initial residual = 0.0081109335, Final residual = 7.8950796e-05, No Iterations 13
time step continuity errors : sum local = 0.00024733752, global = -3.2546137e-05, cumulative = 0.0023026131
DILUPBiCGStab:  Solving for omega, Initial residual = 1.7426711e-05, Final residual = 5.3286671e-08, No Iterations 1
DILUPBiCGStab:  Solving for k, Initial residual = 0.014847588, Final residual = 4.0176736e-05, No Iterations 1
ExecutionTime = 15.67 s  ClockTime = 16 s

Time = 24

DILUPBiCGStab:  Solving for Ux, Initial residual = 0.0019750086, Final residual = 1.5730697e-06, No Iterations 1
DILUPBiCGStab:  Solving for Uy, Initial residual = 0.002961316, Final residual = 6.3192669e-06, No Iterations 1
DILUPBiCGStab:  Solving for e, Initial residual = 0.018721544, Final residual = 3.0095874e-05, No Iterations 1
GAMG:  Solving for p, Initial residual = 0.0080790163, Final residual = 7.7491762e-05, No Iterations 13
time step continuity errors : sum local = 0.00024013226, global = -3.387456e-05, cumulative = 0.0022687386
DILUPBiCGStab:  Solving for omega, Initial residual = 1.6446578e-05, Final residual = 5.2707262e-08, No Iterations 1
DILUPBiCGStab:  Solving for k, Initial residual = 0.014328693, Final residual = 3.9006184e-05, No Iterations 1
ExecutionTime = 16.16 s  ClockTime = 16 s

Time = 25

DILUPBiCGStab:  Solving for Ux, Initial residual = 0.0019536274, Final residual = 1.5639214e-06, No Iterations 1
DILUPBiCGStab:  Solving for Uy, Initial residual = 0.0027750219, Final residual = 5.812081e-06, No Iterations 1
DILUPBiCGStab:  Solving for e, Initial residual = 0.018238129, Final residual = 2.876073e-05, No Iterations 1
GAMG:  Solving for p, Initial residual = 0.0080478316, Final residual = 7.5068409e-05, No Iterations 13
time step continuity errors : sum local = 0.00023010368, global = -3.4034196e-05, cumulative = 0.0022347044
DILUPBiCGStab:  Solving for omega, Initial residual = 1.553888e-05, Final residual = 5.2040557e-08, No Iterations 1
DILUPBiCGStab:  Solving for k, Initial residual = 0.013839894, Final residual = 3.790979e-05, No Iterations 1
ExecutionTime = 16.66 s  ClockTime = 17 s

Time = 26

DILUPBiCGStab:  Solving for Ux, Initial residual = 0.0019343116, Final residual = 1.554661e-06, No Iterations 1
DILUPBiCGStab:  Solving for Uy, Initial residual = 0.0027344046, Final residual = 5.5138284e-06, No Iterations 1
DILUPBiCGStab:  Solving for e, Initial residual = 0.017798502, Final residual = 2.7545364e-05, No Iterations 1
GAMG:  Solving for p, Initial residual = 0.0080222064, Final residual = 7.3445558e-05, No Iterations 13
time step continuity errors : sum local = 0.00022269736, global = -3.3328513e-05, cumulative = 0.0022013759
DILUPBiCGStab:  Solving for omega, Initial residual = 1.4698214e-05, Final residual = 5.1310384e-08, No Iterations 1
DILUPBiCGStab:  Solving for k, Initial residual = 0.013378896, Final residual = 3.6883487e-05, No Iterations 1
ExecutionTime = 17.16 s  ClockTime = 17 s

Time = 27

DILUPBiCGStab:  Solving for Ux, Initial residual = 0.0019161659, Final residual = 1.5447254e-06, No Iterations 1
DILUPBiCGStab:  Solving for Uy, Initial residual = 0.0027133636, Final residual = 5.2570723e-06, No Iterations 1
DILUPBiCGStab:  Solving for e, Initial residual = 0.017397024, Final residual = 2.6433946e-05, No Iterations 1
GAMG:  Solving for p, Initial residual = 0.0080031257, Final residual = 7.2769952e-05, No Iterations 13
time step continuity errors : sum local = 0.00021827105, global = -3.2703486e-05, cumulative = 0.0021686724
DILUPBiCGStab:  Solving for omega, Initial residual = 1.3917775e-05, Final residual = 5.0539641e-08, No Iterations 1
DILUPBiCGStab:  Solving for k, Initial residual = 0.012943251, Final residual = 3.5916363e-05, No Iterations 1
ExecutionTime = 17.66 s  ClockTime = 18 s

Time = 28

DILUPBiCGStab:  Solving for Ux, Initial residual = 0.0018995512, Final residual = 1.5343407e-06, No Iterations 1
DILUPBiCGStab:  Solving for Uy, Initial residual = 0.0026683878, Final residual = 4.986316e-06, No Iterations 1
DILUPBiCGStab:  Solving for e, Initial residual = 0.017030168, Final residual = 2.5416797e-05, No Iterations 1
GAMG:  Solving for p, Initial residual = 0.0079895278, Final residual = 7.2552691e-05, No Iterations 13
time step continuity errors : sum local = 0.00021527925, global = -3.2293114e-05, cumulative = 0.0021363793
DILUPBiCGStab:  Solving for omega, Initial residual = 1.3192956e-05, Final residual = 4.9739952e-08, No Iterations 1
DILUPBiCGStab:  Solving for k, Initial residual = 0.012530983, Final residual = 3.5007245e-05, No Iterations 1
ExecutionTime = 18.16 s  ClockTime = 18 s

Time = 29

DILUPBiCGStab:  Solving for Ux, Initial residual = 0.0018841991, Final residual = 1.5240071e-06, No Iterations 1
DILUPBiCGStab:  Solving for Uy, Initial residual = 0.0025976367, Final residual = 4.7191798e-06, No Iterations 1
DILUPBiCGStab:  Solving for e, Initial residual = 0.016693744, Final residual = 2.4481932e-05, No Iterations 1
GAMG:  Solving for p, Initial residual = 0.0079801545, Final residual = 7.2470746e-05, No Iterations 13
time step continuity errors : sum local = 0.00021272746, global = -3.1759899e-05, cumulative = 0.0021046194
DILUPBiCGStab:  Solving for omega, Initial residual = 1.2519177e-05, Final residual = 4.8920832e-08, No Iterations 1
DILUPBiCGStab:  Solving for k, Initial residual = 0.012140391, Final residual = 3.4149699e-05, No Iterations 1
ExecutionTime = 18.65 s  ClockTime = 19 s

Time = 30

DILUPBiCGStab:  Solving for Ux, Initial residual = 0.0018697814, Final residual = 1.5134347e-06, No Iterations 1
DILUPBiCGStab:  Solving for Uy, Initial residual = 0.0025118868, Final residual = 4.4567666e-06, No Iterations 1
DILUPBiCGStab:  Solving for e, Initial residual = 0.016385326, Final residual = 2.3623658e-05, No Iterations 1
GAMG:  Solving for p, Initial residual = 0.0079729059, Final residual = 7.2558527e-05, No Iterations 13
time step continuity errors : sum local = 0.00021070157, global = -3.0523109e-05, cumulative = 0.0020740963
DILUPBiCGStab:  Solving for omega, Initial residual = 1.1892563e-05, Final residual = 4.8090923e-08, No Iterations 1
DILUPBiCGStab:  Solving for k, Initial residual = 0.011769878, Final residual = 3.3336565e-05, No Iterations 1
ExecutionTime = 19.16 s  ClockTime = 19 s

Time = 31

DILUPBiCGStab:  Solving for Ux, Initial residual = 0.0018560738, Final residual = 1.5023281e-06, No Iterations 1
DILUPBiCGStab:  Solving for Uy, Initial residual = 0.0024156717, Final residual = 4.1896669e-06, No Iterations 1
DILUPBiCGStab:  Solving for e, Initial residual = 0.01610208, Final residual = 2.2834273e-05, No Iterations 1
GAMG:  Solving for p, Initial residual = 0.0079687395, Final residual = 7.3728943e-05, No Iterations 13
time step continuity errors : sum local = 0.00021180686, global = -2.7969869e-05, cumulative = 0.0020461264
DILUPBiCGStab:  Solving for omega, Initial residual = 1.1309436e-05, Final residual = 4.7257022e-08, No Iterations 1
DILUPBiCGStab:  Solving for k, Initial residual = 0.011417889, Final residual = 3.2564527e-05, No Iterations 1
ExecutionTime = 19.64 s  ClockTime = 20 s

Time = 32

DILUPBiCGStab:  Solving for Ux, Initial residual = 0.0018428848, Final residual = 1.490677e-06, No Iterations 1
DILUPBiCGStab:  Solving for Uy, Initial residual = 0.0023335056, Final residual = 3.9506538e-06, No Iterations 1
DILUPBiCGStab:  Solving for e, Initial residual = 0.015841307, Final residual = 2.2108302e-05, No Iterations 1
GAMG:  Solving for p, Initial residual = 0.0079677507, Final residual = 7.6600028e-05, No Iterations 13
time step continuity errors : sum local = 0.00021769929, global = -2.3638082e-05, cumulative = 0.0020224883
DILUPBiCGStab:  Solving for omega, Initial residual = 1.0765959e-05, Final residual = 4.6424576e-08, No Iterations 1
DILUPBiCGStab:  Solving for k, Initial residual = 0.011083051, Final residual = 3.183139e-05, No Iterations 1
ExecutionTime = 20.14 s  ClockTime = 20 s

Time = 33

DILUPBiCGStab:  Solving for Ux, Initial residual = 0.0018301366, Final residual = 1.4785343e-06, No Iterations 1
DILUPBiCGStab:  Solving for Uy, Initial residual = 0.0022837504, Final residual = 3.753993e-06, No Iterations 1
DILUPBiCGStab:  Solving for e, Initial residual = 0.015600401, Final residual = 2.1439718e-05, No Iterations 1
GAMG:  Solving for p, Initial residual = 0.0079666884, Final residual = 7.8546606e-05, No Iterations 13
time step continuity errors : sum local = 0.00022084321, global = -1.7264628e-05, cumulative = 0.0020052237
DILUPBiCGStab:  Solving for omega, Initial residual = 1.0315127e-05, Final residual = 4.5597984e-08, No Iterations 1
DILUPBiCGStab:  Solving for k, Initial residual = 0.010764311, Final residual = 3.1134912e-05, No Iterations 1
ExecutionTime = 20.65 s  ClockTime = 21 s

Time = 34

DILUPBiCGStab:  Solving for Ux, Initial residual = 0.0018177534, Final residual = 1.4659109e-06, No Iterations 1
DILUPBiCGStab:  Solving for Uy, Initial residual = 0.0022574439, Final residual = 3.5909682e-06, No Iterations 1
DILUPBiCGStab:  Solving for e, Initial residual = 0.015377681, Final residual = 2.0824409e-05, No Iterations 1
GAMG:  Solving for p, Initial residual = 0.0079634117, Final residual = 7.8780877e-05, No Iterations 13
time step continuity errors : sum local = 0.00021913297, global = -8.6487907e-06, cumulative = 0.0019965749
DILUPBiCGStab:  Solving for omega, Initial residual = 9.9321433e-06, Final residual = 4.4780612e-08, No Iterations 1
DILUPBiCGStab:  Solving for k, Initial residual = 0.010460256, Final residual = 3.0471016e-05, No Iterations 1
ExecutionTime = 21.14 s  ClockTime = 21 s

Time = 35

DILUPBiCGStab:  Solving for Ux, Initial residual = 0.0018055744, Final residual = 1.4527961e-06, No Iterations 1
DILUPBiCGStab:  Solving for Uy, Initial residual = 0.0022530683, Final residual = 3.4577447e-06, No Iterations 1
DILUPBiCGStab:  Solving for e, Initial residual = 0.015171863, Final residual = 2.0255446e-05, No Iterations 1
GAMG:  Solving for p, Initial residual = 0.0079578199, Final residual = 7.7194049e-05, No Iterations 13
time step continuity errors : sum local = 0.00021242366, global = 2.3113146e-06, cumulative = 0.0019988862
DILUPBiCGStab:  Solving for omega, Initial residual = 9.5749368e-06, Final residual = 4.3975071e-08, No Iterations 1
DILUPBiCGStab:  Solving for k, Initial residual = 0.010169354, Final residual = 2.9836156e-05, No Iterations 1
ExecutionTime = 21.64 s  ClockTime = 22 s

Time = 36

DILUPBiCGStab:  Solving for Ux, Initial residual = 0.0017935993, Final residual = 1.4392378e-06, No Iterations 1
DILUPBiCGStab:  Solving for Uy, Initial residual = 0.002256682, Final residual = 3.3350583e-06, No Iterations 1
DILUPBiCGStab:  Solving for e, Initial residual = 0.014981147, Final residual = 1.9729282e-05, No Iterations 1
GAMG:  Solving for p, Initial residual = 0.0079510347, Final residual = 7.3371733e-05, No Iterations 12
time step continuity errors : sum local = 0.00019974728, global = -1.9556588e-05, cumulative = 0.0019793296
DILUPBiCGStab:  Solving for omega, Initial residual = 9.2427447e-06, Final residual = 4.3183239e-08, No Iterations 1
DILUPBiCGStab:  Solving for k, Initial residual = 0.009891256, Final residual = 2.9227809e-05, No Iterations 1
ExecutionTime = 22.12 s  ClockTime = 22 s

Time = 37

DILUPBiCGStab:  Solving for Ux, Initial residual = 0.0017808787, Final residual = 1.4247964e-06, No Iterations 1
DILUPBiCGStab:  Solving for Uy, Initial residual = 0.0022056526, Final residual = 3.2027847e-06, No Iterations 1
DILUPBiCGStab:  Solving for e, Initial residual = 0.014804291, Final residual = 1.9241973e-05, No Iterations 1
GAMG:  Solving for p, Initial residual = 0.0079516665, Final residual = 7.6501684e-05, No Iterations 12
time step continuity errors : sum local = 0.00020604009, global = -1.9450459e-05, cumulative = 0.0019598792
DILUPBiCGStab:  Solving for omega, Initial residual = 8.9318353e-06, Final residual = 4.2406887e-08, No Iterations 1
DILUPBiCGStab:  Solving for k, Initial residual = 0.0096259722, Final residual = 2.8646265e-05, No Iterations 1
ExecutionTime = 22.6 s  ClockTime = 23 s

Time = 38

DILUPBiCGStab:  Solving for Ux, Initial residual = 0.001769369, Final residual = 1.4106086e-06, No Iterations 1
DILUPBiCGStab:  Solving for Uy, Initial residual = 0.002177277, Final residual = 3.0768009e-06, No Iterations 1
DILUPBiCGStab:  Solving for e, Initial residual = 0.014640296, Final residual = 1.8789814e-05, No Iterations 1
GAMG:  Solving for p, Initial residual = 0.0079615091, Final residual = 7.7798687e-05, No Iterations 12
time step continuity errors : sum local = 0.00020729292, global = -1.9669209e-05, cumulative = 0.00194021
DILUPBiCGStab:  Solving for omega, Initial residual = 8.635454e-06, Final residual = 4.1661429e-08, No Iterations 1
DILUPBiCGStab:  Solving for k, Initial residual = 0.0093733837, Final residual = 2.8091013e-05, No Iterations 1
ExecutionTime = 23.08 s  ClockTime = 23 s

Time = 39

DILUPBiCGStab:  Solving for Ux, Initial residual = 0.0017578707, Final residual = 1.3961272e-06, No Iterations 1
DILUPBiCGStab:  Solving for Uy, Initial residual = 0.0021854513, Final residual = 2.9684869e-06, No Iterations 1
DILUPBiCGStab:  Solving for e, Initial residual = 0.014488252, Final residual = 1.8369459e-05, No Iterations 1
GAMG:  Solving for p, Initial residual = 0.0079640914, Final residual = 7.6979163e-05, No Iterations 12
time step continuity errors : sum local = 0.00020291566, global = -2.0116578e-05, cumulative = 0.0019200934
DILUPBiCGStab:  Solving for omega, Initial residual = 8.3527976e-06, Final residual = 4.0976775e-08, No Iterations 1
DILUPBiCGStab:  Solving for k, Initial residual = 0.0091328236, Final residual = 2.7562674e-05, No Iterations 1
ExecutionTime = 23.6 s  ClockTime = 24 s

Time = 40

DILUPBiCGStab:  Solving for Ux, Initial residual = 0.0017459888, Final residual = 1.3811421e-06, No Iterations 1
DILUPBiCGStab:  Solving for Uy, Initial residual = 0.0022225305, Final residual = 2.88763e-06, No Iterations 1
DILUPBiCGStab:  Solving for e, Initial residual = 0.014347037, Final residual = 1.7977128e-05, No Iterations 1
GAMG:  Solving for p, Initial residual = 0.0079660365, Final residual = 7.3107304e-05, No Iterations 12
time step continuity errors : sum local = 0.00019064951, global = -2.1597722e-05, cumulative = 0.0018984957
DILUPBiCGStab:  Solving for omega, Initial residual = 8.08291e-06, Final residual = 4.0305325e-08, No Iterations 1
DILUPBiCGStab:  Solving for k, Initial residual = 0.0089036931, Final residual = 2.7059074e-05, No Iterations 1
ExecutionTime = 24.08 s  ClockTime = 24 s

Time = 41

DILUPBiCGStab:  Solving for Ux, Initial residual = 0.0017340527, Final residual = 1.3658522e-06, No Iterations 1
DILUPBiCGStab:  Solving for Uy, Initial residual = 0.002266605, Final residual = 2.8182117e-06, No Iterations 1
DILUPBiCGStab:  Solving for e, Initial residual = 0.014215191, Final residual = 1.7609665e-05, No Iterations 1
GAMG:  Solving for p, Initial residual = 0.0079658783, Final residual = 6.9700691e-05, No Iterations 12
time step continuity errors : sum local = 0.00017982247, global = -2.2660516e-05, cumulative = 0.0018758351
DILUPBiCGStab:  Solving for omega, Initial residual = 7.8253063e-06, Final residual = 3.9646102e-08, No Iterations 1
DILUPBiCGStab:  Solving for k, Initial residual = 0.0086854326, Final residual = 2.657961e-05, No Iterations 1
ExecutionTime = 24.55 s  ClockTime = 25 s

Time = 42

DILUPBiCGStab:  Solving for Ux, Initial residual = 0.0017221793, Final residual = 1.3503708e-06, No Iterations 1
DILUPBiCGStab:  Solving for Uy, Initial residual = 0.0023029264, Final residual = 2.7517444e-06, No Iterations 1
DILUPBiCGStab:  Solving for e, Initial residual = 0.014094358, Final residual = 1.7265441e-05, No Iterations 1
GAMG:  Solving for p, Initial residual = 0.0079680393, Final residual = 6.7746957e-05, No Iterations 12
time step continuity errors : sum local = 0.00017291312, global = -2.3032225e-05, cumulative = 0.0018528029
DILUPBiCGStab:  Solving for omega, Initial residual = 7.5793383e-06, Final residual = 3.8999043e-08, No Iterations 1
DILUPBiCGStab:  Solving for k, Initial residual = 0.0084774316, Final residual = 2.6123421e-05, No Iterations 1
ExecutionTime = 25.04 s  ClockTime = 25 s

Time = 43

DILUPBiCGStab:  Solving for Ux, Initial residual = 0.0017102675, Final residual = 1.3347061e-06, No Iterations 1
DILUPBiCGStab:  Solving for Uy, Initial residual = 0.0023271, Final residual = 2.68001e-06, No Iterations 1
DILUPBiCGStab:  Solving for e, Initial residual = 0.013983714, Final residual = 1.6941886e-05, No Iterations 1
GAMG:  Solving for p, Initial residual = 0.0079693724, Final residual = 6.6979116e-05, No Iterations 12
time step continuity errors : sum local = 0.00016912439, global = -2.318857e-05, cumulative = 0.0018296144
DILUPBiCGStab:  Solving for omega, Initial residual = 7.3442074e-06, Final residual = 3.8364325e-08, No Iterations 1
DILUPBiCGStab:  Solving for k, Initial residual = 0.0082792262, Final residual = 2.5686624e-05, No Iterations 1
ExecutionTime = 25.52 s  ClockTime = 26 s

Time = 44

DILUPBiCGStab:  Solving for Ux, Initial residual = 0.0016983018, Final residual = 1.3189313e-06, No Iterations 1
DILUPBiCGStab:  Solving for Uy, Initial residual = 0.0023457647, Final residual = 2.6065836e-06, No Iterations 1
DILUPBiCGStab:  Solving for e, Initial residual = 0.013881175, Final residual = 1.6638206e-05, No Iterations 1
GAMG:  Solving for p, Initial residual = 0.0079700636, Final residual = 6.6726619e-05, No Iterations 12
time step continuity errors : sum local = 0.00016668318, global = -2.3042199e-05, cumulative = 0.0018065722
DILUPBiCGStab:  Solving for omega, Initial residual = 7.1193732e-06, Final residual = 3.7741999e-08, No Iterations 1
DILUPBiCGStab:  Solving for k, Initial residual = 0.0080902917, Final residual = 2.5267956e-05, No Iterations 1
ExecutionTime = 26 s  ClockTime = 26 s

Time = 45

DILUPBiCGStab:  Solving for Ux, Initial residual = 0.0016862223, Final residual = 1.303031e-06, No Iterations 1
DILUPBiCGStab:  Solving for Uy, Initial residual = 0.0023662007, Final residual = 2.5374045e-06, No Iterations 1
DILUPBiCGStab:  Solving for e, Initial residual = 0.013786951, Final residual = 1.6352579e-05, No Iterations 1
GAMG:  Solving for p, Initial residual = 0.0079734783, Final residual = 6.6537306e-05, No Iterations 12
time step continuity errors : sum local = 0.00016443176, global = -2.2828404e-05, cumulative = 0.0017837437
DILUPBiCGStab:  Solving for omega, Initial residual = 6.9042744e-06, Final residual = 3.7132572e-08, No Iterations 1
DILUPBiCGStab:  Solving for k, Initial residual = 0.0079101486, Final residual = 2.4868977e-05, No Iterations 1
ExecutionTime = 26.48 s  ClockTime = 27 s

Time = 46

DILUPBiCGStab:  Solving for Ux, Initial residual = 0.0016740628, Final residual = 1.2870703e-06, No Iterations 1
DILUPBiCGStab:  Solving for Uy, Initial residual = 0.0023928172, Final residual = 2.476791e-06, No Iterations 1
DILUPBiCGStab:  Solving for e, Initial residual = 0.01369872, Final residual = 1.6084481e-05, No Iterations 1
GAMG:  Solving for p, Initial residual = 0.007977485, Final residual = 6.6458019e-05, No Iterations 12
time step continuity errors : sum local = 0.00016247936, global = -2.2541051e-05, cumulative = 0.0017612027
DILUPBiCGStab:  Solving for omega, Initial residual = 6.6984607e-06, Final residual = 3.6535904e-08, No Iterations 1
DILUPBiCGStab:  Solving for k, Initial residual = 0.0077383186, Final residual = 2.4487891e-05, No Iterations 1
ExecutionTime = 26.97 s  ClockTime = 27 s

Time = 47

DILUPBiCGStab:  Solving for Ux, Initial residual = 0.0016618492, Final residual = 1.2710804e-06, No Iterations 1
DILUPBiCGStab:  Solving for Uy, Initial residual = 0.0024242298, Final residual = 2.4266441e-06, No Iterations 1
DILUPBiCGStab:  Solving for e, Initial residual = 0.013616892, Final residual = 1.58329e-05, No Iterations 1
GAMG:  Solving for p, Initial residual = 0.0079818084, Final residual = 7.958749e-05, No Iterations 10
time step continuity errors : sum local = 0.00019249878, global = -2.6058635e-05, cumulative = 0.0017351441
DILUPBiCGStab:  Solving for omega, Initial residual = 6.4998296e-06, Final residual = 3.595236e-08, No Iterations 1
DILUPBiCGStab:  Solving for k, Initial residual = 0.0075743321, Final residual = 2.4122282e-05, No Iterations 1
ExecutionTime = 27.42 s  ClockTime = 28 s

Time = 48

DILUPBiCGStab:  Solving for Ux, Initial residual = 0.0016488786, Final residual = 1.254756e-06, No Iterations 1
DILUPBiCGStab:  Solving for Uy, Initial residual = 0.0024345963, Final residual = 2.4059998e-06, No Iterations 1
DILUPBiCGStab:  Solving for e, Initial residual = 0.01354082, Final residual = 1.5596681e-05, No Iterations 1
GAMG:  Solving for p, Initial residual = 0.0079911586, Final residual = 7.1911756e-05, No Iterations 12
time step continuity errors : sum local = 0.00017207455, global = -2.3721855e-05, cumulative = 0.0017114222
DILUPBiCGStab:  Solving for omega, Initial residual = 6.3134625e-06, Final residual = 3.5382357e-08, No Iterations 1
DILUPBiCGStab:  Solving for k, Initial residual = 0.0074177245, Final residual = 2.3771862e-05, No Iterations 1
ExecutionTime = 27.91 s  ClockTime = 28 s

Time = 49

DILUPBiCGStab:  Solving for Ux, Initial residual = 0.0016374778, Final residual = 1.2391624e-06, No Iterations 1
DILUPBiCGStab:  Solving for Uy, Initial residual = 0.0024518886, Final residual = 2.3168024e-06, No Iterations 1
DILUPBiCGStab:  Solving for e, Initial residual = 0.013471428, Final residual = 1.5378404e-05, No Iterations 1
GAMG:  Solving for p, Initial residual = 0.0079923911, Final residual = 6.9589419e-05, No Iterations 12
time step continuity errors : sum local = 0.00016473717, global = -2.2508566e-05, cumulative = 0.0016889136
DILUPBiCGStab:  Solving for omega, Initial residual = 6.132663e-06, Final residual = 3.482518e-08, No Iterations 1
DILUPBiCGStab:  Solving for k, Initial residual = 0.0072680787, Final residual = 2.3436745e-05, No Iterations 1
ExecutionTime = 28.39 s  ClockTime = 29 s

Time = 50

DILUPBiCGStab:  Solving for Ux, Initial residual = 0.0016250941, Final residual = 1.223278e-06, No Iterations 1
DILUPBiCGStab:  Solving for Uy, Initial residual = 0.0025121247, Final residual = 2.281045e-06, No Iterations 1
DILUPBiCGStab:  Solving for e, Initial residual = 0.013406449, Final residual = 1.517447e-05, No Iterations 1
GAMG:  Solving for p, Initial residual = 0.0079939508, Final residual = 7.9648468e-05, No Iterations 10
time step continuity errors : sum local = 0.00018653445, global = -2.5199879e-05, cumulative = 0.0016637138
DILUPBiCGStab:  Solving for omega, Initial residual = 5.9576234e-06, Final residual = 3.4280799e-08, No Iterations 1
DILUPBiCGStab:  Solving for k, Initial residual = 0.0071251365, Final residual = 2.3116575e-05, No Iterations 1
ExecutionTime = 28.84 s  ClockTime = 29 s

Time = 51

DILUPBiCGStab:  Solving for Ux, Initial residual = 0.0016117113, Final residual = 1.2070154e-06, No Iterations 1
DILUPBiCGStab:  Solving for Uy, Initial residual = 0.0025570797, Final residual = 2.2983492e-06, No Iterations 1
DILUPBiCGStab:  Solving for e, Initial residual = 0.013346272, Final residual = 1.4985198e-05, No Iterations 1
GAMG:  Solving for p, Initial residual = 0.0080013307, Final residual = 7.0965258e-05, No Iterations 12
time step continuity errors : sum local = 0.00016442216, global = -2.2424901e-05, cumulative = 0.0016412889
DILUPBiCGStab:  Solving for omega, Initial residual = 5.8121071e-06, Final residual = 3.3749435e-08, No Iterations 1
DILUPBiCGStab:  Solving for k, Initial residual = 0.0069884128, Final residual = 2.2811315e-05, No Iterations 1
ExecutionTime = 29.32 s  ClockTime = 30 s

Time = 52

DILUPBiCGStab:  Solving for Ux, Initial residual = 0.0015997302, Final residual = 1.1913741e-06, No Iterations 1
DILUPBiCGStab:  Solving for Uy, Initial residual = 0.0025663922, Final residual = 2.2334952e-06, No Iterations 1
DILUPBiCGStab:  Solving for e, Initial residual = 0.013295397, Final residual = 1.4809735e-05, No Iterations 1
GAMG:  Solving for p, Initial residual = 0.0080041421, Final residual = 6.8351198e-05, No Iterations 12
time step continuity errors : sum local = 0.00015666992, global = -2.1219083e-05, cumulative = 0.0016200698
DILUPBiCGStab:  Solving for omega, Initial residual = 5.6766774e-06, Final residual = 3.3230506e-08, No Iterations 1
DILUPBiCGStab:  Solving for k, Initial residual = 0.006857472, Final residual = 2.2516499e-05, No Iterations 1
ExecutionTime = 29.8 s  ClockTime = 30 s

Time = 53

DILUPBiCGStab:  Solving for Ux, Initial residual = 0.0015871057, Final residual = 1.1756266e-06, No Iterations 1
DILUPBiCGStab:  Solving for Uy, Initial residual = 0.0025928613, Final residual = 2.2002437e-06, No Iterations 1
DILUPBiCGStab:  Solving for e, Initial residual = 0.013248955, Final residual = 1.4647579e-05, No Iterations 1
GAMG:  Solving for p, Initial residual = 0.0080082962, Final residual = 7.8757239e-05, No Iterations 10
time step continuity errors : sum local = 0.0001785841, global = -2.4155345e-05, cumulative = 0.0015959144
DILUPBiCGStab:  Solving for omega, Initial residual = 5.5459423e-06, Final residual = 3.2723808e-08, No Iterations 1
DILUPBiCGStab:  Solving for k, Initial residual = 0.0067320248, Final residual = 2.2234897e-05, No Iterations 1
ExecutionTime = 30.26 s  ClockTime = 30 s

Time = 54

DILUPBiCGStab:  Solving for Ux, Initial residual = 0.0015737453, Final residual = 1.1597464e-06, No Iterations 1
DILUPBiCGStab:  Solving for Uy, Initial residual = 0.0026159855, Final residual = 2.2125102e-06, No Iterations 1
DILUPBiCGStab:  Solving for e, Initial residual = 0.013205882, Final residual = 1.4497209e-05, No Iterations 1
GAMG:  Solving for p, Initial residual = 0.0080183181, Final residual = 7.027645e-05, No Iterations 12
time step continuity errors : sum local = 0.00015764183, global = -2.1343983e-05, cumulative = 0.0015745704
DILUPBiCGStab:  Solving for omega, Initial residual = 5.4233257e-06, Final residual = 3.2229334e-08, No Iterations 1
DILUPBiCGStab:  Solving for k, Initial residual = 0.0066117827, Final residual = 2.1966328e-05, No Iterations 1
ExecutionTime = 30.73 s  ClockTime = 31 s

Time = 55

DILUPBiCGStab:  Solving for Ux, Initial residual = 0.0015614806, Final residual = 1.1444588e-06, No Iterations 1
DILUPBiCGStab:  Solving for Uy, Initial residual = 0.002593628, Final residual = 2.1396957e-06, No Iterations 1
DILUPBiCGStab:  Solving for e, Initial residual = 0.013168998, Final residual = 1.4361309e-05, No Iterations 1
GAMG:  Solving for p, Initial residual = 0.0080216525, Final residual = 6.7790923e-05, No Iterations 12
time step continuity errors : sum local = 0.00015043052, global = -2.0187326e-05, cumulative = 0.0015543831
DILUPBiCGStab:  Solving for omega, Initial residual = 5.3036788e-06, Final residual = 3.1746584e-08, No Iterations 1
DILUPBiCGStab:  Solving for k, Initial residual = 0.0064964379, Final residual = 2.1705859e-05, No Iterations 1
ExecutionTime = 31.21 s  ClockTime = 31 s

Time = 56

DILUPBiCGStab:  Solving for Ux, Initial residual = 0.0015486617, Final residual = 1.1291363e-06, No Iterations 1
DILUPBiCGStab:  Solving for Uy, Initial residual = 0.0026071691, Final residual = 2.1036454e-06, No Iterations 1
DILUPBiCGStab:  Solving for e, Initial residual = 0.013132039, Final residual = 1.4235368e-05, No Iterations 1
GAMG:  Solving for p, Initial residual = 0.0080242372, Final residual = 7.8543731e-05, No Iterations 10
time step continuity errors : sum local = 0.00017241577, global = -2.3145047e-05, cumulative = 0.0015312381
DILUPBiCGStab:  Solving for omega, Initial residual = 5.188039e-06, Final residual = 3.1283605e-08, No Iterations 1
DILUPBiCGStab:  Solving for k, Initial residual = 0.0063858027, Final residual = 2.1456087e-05, No Iterations 1
ExecutionTime = 31.67 s  ClockTime = 32 s

Time = 57

DILUPBiCGStab:  Solving for Ux, Initial residual = 0.0015351246, Final residual = 1.1136545e-06, No Iterations 1
DILUPBiCGStab:  Solving for Uy, Initial residual = 0.0026330989, Final residual = 2.1162329e-06, No Iterations 1
DILUPBiCGStab:  Solving for e, Initial residual = 0.013099762, Final residual = 1.4116943e-05, No Iterations 1
GAMG:  Solving for p, Initial residual = 0.0080334401, Final residual = 7.0027227e-05, No Iterations 12
time step continuity errors : sum local = 0.0001520667, global = -2.0282929e-05, cumulative = 0.0015109551
DILUPBiCGStab:  Solving for omega, Initial residual = 5.0797404e-06, Final residual = 3.0857028e-08, No Iterations 1
DILUPBiCGStab:  Solving for k, Initial residual = 0.0062796224, Final residual = 2.1220484e-05, No Iterations 1
ExecutionTime = 32.16 s  ClockTime = 32 s

Time = 58

DILUPBiCGStab:  Solving for Ux, Initial residual = 0.0015225032, Final residual = 1.0986147e-06, No Iterations 1
DILUPBiCGStab:  Solving for Uy, Initial residual = 0.0026170499, Final residual = 2.056683e-06, No Iterations 1
DILUPBiCGStab:  Solving for e, Initial residual = 0.01307173, Final residual = 1.4007882e-05, No Iterations 1
GAMG:  Solving for p, Initial residual = 0.0080357455, Final residual = 6.7550852e-05, No Iterations 12
time step continuity errors : sum local = 0.00014511027, global = -1.9137506e-05, cumulative = 0.0014918176
DILUPBiCGStab:  Solving for omega, Initial residual = 4.9730602e-06, Final residual = 3.0452175e-08, No Iterations 1
DILUPBiCGStab:  Solving for k, Initial residual = 0.0061775634, Final residual = 2.0991712e-05, No Iterations 1
ExecutionTime = 32.64 s  ClockTime = 33 s

Time = 59

DILUPBiCGStab:  Solving for Ux, Initial residual = 0.0015094203, Final residual = 1.0835935e-06, No Iterations 1
DILUPBiCGStab:  Solving for Uy, Initial residual = 0.0026289281, Final residual = 2.0279654e-06, No Iterations 1
DILUPBiCGStab:  Solving for e, Initial residual = 0.013050728, Final residual = 1.3908039e-05, No Iterations 1
GAMG:  Solving for p, Initial residual = 0.0080394527, Final residual = 7.859008e-05, No Iterations 10
time step continuity errors : sum local = 0.00016700648, global = -2.2028034e-05, cumulative = 0.0014697896
DILUPBiCGStab:  Solving for omega, Initial residual = 4.8682113e-06, Final residual = 3.0053506e-08, No Iterations 1
DILUPBiCGStab:  Solving for k, Initial residual = 0.0060794215, Final residual = 2.0771747e-05, No Iterations 1
ExecutionTime = 33.09 s  ClockTime = 33 s

Time = 60

DILUPBiCGStab:  Solving for Ux, Initial residual = 0.0014957243, Final residual = 1.0684859e-06, No Iterations 1
DILUPBiCGStab:  Solving for Uy, Initial residual = 0.0026505453, Final residual = 2.0382533e-06, No Iterations 1
DILUPBiCGStab:  Solving for e, Initial residual = 0.013032139, Final residual = 1.3813637e-05, No Iterations 1
GAMG:  Solving for p, Initial residual = 0.008050875, Final residual = 6.971756e-05, No Iterations 12
time step continuity errors : sum local = 0.0001465568, global = -1.9131752e-05, cumulative = 0.0014506579
DILUPBiCGStab:  Solving for omega, Initial residual = 4.7689264e-06, Final residual = 2.9660288e-08, No Iterations 1
DILUPBiCGStab:  Solving for k, Initial residual = 0.0059850486, Final residual = 2.0563284e-05, No Iterations 1
ExecutionTime = 33.58 s  ClockTime = 34 s

Time = 61

DILUPBiCGStab:  Solving for Ux, Initial residual = 0.0014827493, Final residual = 1.0537497e-06, No Iterations 1
DILUPBiCGStab:  Solving for Uy, Initial residual = 0.0026300341, Final residual = 1.9802272e-06, No Iterations 1
DILUPBiCGStab:  Solving for e, Initial residual = 0.01301697, Final residual = 1.3726624e-05, No Iterations 1
GAMG:  Solving for p, Initial residual = 0.0080549349, Final residual = 6.7082552e-05, No Iterations 12
time step continuity errors : sum local = 0.00013949814, global = -1.8009746e-05, cumulative = 0.0014326481
DILUPBiCGStab:  Solving for omega, Initial residual = 4.6698097e-06, Final residual = 2.925978e-08, No Iterations 1
DILUPBiCGStab:  Solving for k, Initial residual = 0.0058942175, Final residual = 2.0360877e-05, No Iterations 1
ExecutionTime = 34.06 s  ClockTime = 34 s

Time = 62

DILUPBiCGStab:  Solving for Ux, Initial residual = 0.0014694859, Final residual = 1.0391285e-06, No Iterations 1
DILUPBiCGStab:  Solving for Uy, Initial residual = 0.0026335951, Final residual = 1.9491425e-06, No Iterations 1
DILUPBiCGStab:  Solving for e, Initial residual = 0.013004482, Final residual = 1.3647257e-05, No Iterations 1
GAMG:  Solving for p, Initial residual = 0.0080606197, Final residual = 7.848623e-05, No Iterations 10
time step continuity errors : sum local = 0.0001614524, global = -2.0813615e-05, cumulative = 0.0014118345
DILUPBiCGStab:  Solving for omega, Initial residual = 4.5658752e-06, Final residual = 2.8789194e-08, No Iterations 1
DILUPBiCGStab:  Solving for k, Initial residual = 0.0058067911, Final residual = 2.0167811e-05, No Iterations 1
ExecutionTime = 34.52 s  ClockTime = 35 s

Time = 63

DILUPBiCGStab:  Solving for Ux, Initial residual = 0.0014559728, Final residual = 1.0245926e-06, No Iterations 1
DILUPBiCGStab:  Solving for Uy, Initial residual = 0.0026476094, Final residual = 1.9546797e-06, No Iterations 1
DILUPBiCGStab:  Solving for e, Initial residual = 0.01299354, Final residual = 1.3571872e-05, No Iterations 1
GAMG:  Solving for p, Initial residual = 0.0080716122, Final residual = 6.9308633e-05, No Iterations 12
time step continuity errors : sum local = 0.00014103586, global = -1.8015443e-05, cumulative = 0.0013938191
DILUPBiCGStab:  Solving for omega, Initial residual = 4.4424178e-06, Final residual = 2.8022039e-08, No Iterations 1
DILUPBiCGStab:  Solving for k, Initial residual = 0.0057226708, Final residual = 1.9983276e-05, No Iterations 1
ExecutionTime = 35 s  ClockTime = 35 s

Time = 64

DILUPBiCGStab:  Solving for Ux, Initial residual = 0.0014429849, Final residual = 1.0103502e-06, No Iterations 1
DILUPBiCGStab:  Solving for Uy, Initial residual = 0.0026242132, Final residual = 1.8982752e-06, No Iterations 1
DILUPBiCGStab:  Solving for e, Initial residual = 0.012985999, Final residual = 1.3503364e-05, No Iterations 1
GAMG:  Solving for p, Initial residual = 0.0080735104, Final residual = 6.6593788e-05, No Iterations 12
time step continuity errors : sum local = 0.00013404913, global = -1.6948974e-05, cumulative = 0.0013768701
DILUPBiCGStab:  Solving for omega, Initial residual = 4.283657e-06, Final residual = 2.6763619e-08, No Iterations 1
DILUPBiCGStab:  Solving for k, Initial residual = 0.0056417817, Final residual = 1.9810441e-05, No Iterations 1
ExecutionTime = 35.48 s  ClockTime = 36 s

Time = 65

DILUPBiCGStab:  Solving for Ux, Initial residual = 0.001430022, Final residual = 9.9636427e-07, No Iterations 1
DILUPBiCGStab:  Solving for Uy, Initial residual = 0.0026229077, Final residual = 1.8671245e-06, No Iterations 1
DILUPBiCGStab:  Solving for e, Initial residual = 0.01298479, Final residual = 1.3440741e-05, No Iterations 1
GAMG:  Solving for p, Initial residual = 0.0080793735, Final residual = 7.8452147e-05, No Iterations 10
time step continuity errors : sum local = 0.00015621406, global = -1.9637732e-05, cumulative = 0.0013572323
DILUPBiCGStab:  Solving for omega, Initial residual = 4.1266672e-06, Final residual = 2.5404741e-08, No Iterations 1
DILUPBiCGStab:  Solving for k, Initial residual = 0.005563968, Final residual = 1.9645084e-05, No Iterations 1
ExecutionTime = 35.94 s  ClockTime = 36 s

Time = 66

DILUPBiCGStab:  Solving for Ux, Initial residual = 0.0014173963, Final residual = 9.82708e-07, No Iterations 1
DILUPBiCGStab:  Solving for Uy, Initial residual = 0.0026310729, Final residual = 1.8672941e-06, No Iterations 1
DILUPBiCGStab:  Solving for e, Initial residual = 0.01298514, Final residual = 1.3380856e-05, No Iterations 1
GAMG:  Solving for p, Initial residual = 0.0080924727, Final residual = 6.8931193e-05, No Iterations 12
time step continuity errors : sum local = 0.00013577313, global = -1.6935334e-05, cumulative = 0.001340297
DILUPBiCGStab:  Solving for omega, Initial residual = 4.0054784e-06, Final residual = 2.4324007e-08, No Iterations 1
DILUPBiCGStab:  Solving for k, Initial residual = 0.0054890598, Final residual = 1.9485193e-05, No Iterations 1
ExecutionTime = 36.42 s  ClockTime = 37 s

Time = 67

DILUPBiCGStab:  Solving for Ux, Initial residual = 0.0014053698, Final residual = 9.6939742e-07, No Iterations 1
DILUPBiCGStab:  Solving for Uy, Initial residual = 0.0026094775, Final residual = 1.8146056e-06, No Iterations 1
DILUPBiCGStab:  Solving for e, Initial residual = 0.012988633, Final residual = 1.332854e-05, No Iterations 1
GAMG:  Solving for p, Initial residual = 0.0080969185, Final residual = 6.6270892e-05, No Iterations 12
time step continuity errors : sum local = 0.00012912167, global = -1.5941879e-05, cumulative = 0.0013243551
DILUPBiCGStab:  Solving for omega, Initial residual = 3.895162e-06, Final residual = 2.3273007e-08, No Iterations 1
DILUPBiCGStab:  Solving for k, Initial residual = 0.0054170042, Final residual = 1.9338363e-05, No Iterations 1
ExecutionTime = 36.89 s  ClockTime = 37 s

Time = 68

DILUPBiCGStab:  Solving for Ux, Initial residual = 0.0013936821, Final residual = 9.5645297e-07, No Iterations 1
DILUPBiCGStab:  Solving for Uy, Initial residual = 0.0026051068, Final residual = 1.7850233e-06, No Iterations 1
DILUPBiCGStab:  Solving for e, Initial residual = 0.012993759, Final residual = 1.327939e-05, No Iterations 1
GAMG:  Solving for p, Initial residual = 0.0081043844, Final residual = 7.8735669e-05, No Iterations 10
time step continuity errors : sum local = 0.00015174753, global = -1.8519723e-05, cumulative = 0.0013058354
DILUPBiCGStab:  Solving for omega, Initial residual = 3.8062936e-06, Final residual = 2.2080849e-08, No Iterations 1
DILUPBiCGStab:  Solving for k, Initial residual = 0.0053476487, Final residual = 1.9197007e-05, No Iterations 1
ExecutionTime = 37.35 s  ClockTime = 38 s

Time = 69

DILUPBiCGStab:  Solving for Ux, Initial residual = 0.0013823175, Final residual = 9.4381337e-07, No Iterations 1
DILUPBiCGStab:  Solving for Uy, Initial residual = 0.002609385, Final residual = 1.7817833e-06, No Iterations 1
DILUPBiCGStab:  Solving for e, Initial residual = 0.012999954, Final residual = 1.3234106e-05, No Iterations 1
GAMG:  Solving for p, Initial residual = 0.0081191818, Final residual = 6.8954844e-05, No Iterations 12
time step continuity errors : sum local = 0.00013145765, global = -1.5975367e-05, cumulative = 0.00128986
DILUPBiCGStab:  Solving for omega, Initial residual = 3.7138125e-06, Final residual = 2.1085755e-08, No Iterations 1
DILUPBiCGStab:  Solving for k, Initial residual = 0.0052808886, Final residual = 1.9067791e-05, No Iterations 1
ExecutionTime = 37.83 s  ClockTime = 38 s

Time = 70

DILUPBiCGStab:  Solving for Ux, Initial residual = 0.0013713098, Final residual = 9.3142061e-07, No Iterations 1
DILUPBiCGStab:  Solving for Uy, Initial residual = 0.0025878304, Final residual = 1.7316792e-06, No Iterations 1
DILUPBiCGStab:  Solving for e, Initial residual = 0.013011176, Final residual = 1.3194038e-05, No Iterations 1
GAMG:  Solving for p, Initial residual = 0.0081257131, Final residual = 6.6374607e-05, No Iterations 12
time step continuity errors : sum local = 0.00012516708, global = -1.5070735e-05, cumulative = 0.0012747893
DILUPBiCGStab:  Solving for omega, Initial residual = 3.6401326e-06, Final residual = 2.0298465e-08, No Iterations 1
DILUPBiCGStab:  Solving for k, Initial residual = 0.0052165608, Final residual = 1.8943664e-05, No Iterations 1
ExecutionTime = 38.31 s  ClockTime = 39 s

Time = 71

DILUPBiCGStab:  Solving for Ux, Initial residual = 0.0013606433, Final residual = 9.1940011e-07, No Iterations 1
DILUPBiCGStab:  Solving for Uy, Initial residual = 0.0025806396, Final residual = 1.7032763e-06, No Iterations 1
DILUPBiCGStab:  Solving for e, Initial residual = 0.013025937, Final residual = 1.3157912e-05, No Iterations 1
GAMG:  Solving for p, Initial residual = 0.0081320919, Final residual = 7.9345963e-05, No Iterations 10
time step continuity errors : sum local = 0.00014800502, global = -1.7541506e-05, cumulative = 0.0012572478
DILUPBiCGStab:  Solving for omega, Initial residual = 3.5850871e-06, Final residual = 1.9757961e-08, No Iterations 1
DILUPBiCGStab:  Solving for k, Initial residual = 0.0051546108, Final residual = 1.8830099e-05, No Iterations 1
ExecutionTime = 38.77 s  ClockTime = 39 s

Time = 72

DILUPBiCGStab:  Solving for Ux, Initial residual = 0.0013503924, Final residual = 9.0771841e-07, No Iterations 1
DILUPBiCGStab:  Solving for Uy, Initial residual = 0.0025828661, Final residual = 1.697797e-06, No Iterations 1
DILUPBiCGStab:  Solving for e, Initial residual = 0.013042192, Final residual = 1.3124538e-05, No Iterations 1
GAMG:  Solving for p, Initial residual = 0.0081471143, Final residual = 6.9427844e-05, No Iterations 12
time step continuity errors : sum local = 0.00012809947, global = -1.5213565e-05, cumulative = 0.0012420342
DILUPBiCGStab:  Solving for omega, Initial residual = 3.5267623e-06, Final residual = 1.8900224e-08, No Iterations 1
DILUPBiCGStab:  Solving for k, Initial residual = 0.0050951567, Final residual = 1.8725143e-05, No Iterations 1
ExecutionTime = 39.24 s  ClockTime = 39 s

Time = 73

DILUPBiCGStab:  Solving for Ux, Initial residual = 0.0013403232, Final residual = 8.9621111e-07, No Iterations 1
DILUPBiCGStab:  Solving for Uy, Initial residual = 0.0025591415, Final residual = 1.649539e-06, No Iterations 1
DILUPBiCGStab:  Solving for e, Initial residual = 0.013060909, Final residual = 1.309655e-05, No Iterations 1
GAMG:  Solving for p, Initial residual = 0.0081525067, Final residual = 6.6959506e-05, No Iterations 12
time step continuity errors : sum local = 0.00012220424, global = -1.4414909e-05, cumulative = 0.0012276193
DILUPBiCGStab:  Solving for omega, Initial residual = 3.4564103e-06, Final residual = 1.8611965e-08, No Iterations 1
DILUPBiCGStab:  Solving for k, Initial residual = 0.005038006, Final residual = 1.8629681e-05, No Iterations 1
ExecutionTime = 39.72 s  ClockTime = 40 s

Time = 74

DILUPBiCGStab:  Solving for Ux, Initial residual = 0.0013306126, Final residual = 8.8507007e-07, No Iterations 1
DILUPBiCGStab:  Solving for Uy, Initial residual = 0.0025496907, Final residual = 1.6220934e-06, No Iterations 1
DILUPBiCGStab:  Solving for e, Initial residual = 0.013080321, Final residual = 1.3071586e-05, No Iterations 1
GAMG:  Solving for p, Initial residual = 0.0081591554, Final residual = 8.032883e-05, No Iterations 10
time step continuity errors : sum local = 0.00014501188, global = -1.6777606e-05, cumulative = 0.0012108417
DILUPBiCGStab:  Solving for omega, Initial residual = 3.4099552e-06, Final residual = 1.8569305e-08, No Iterations 1
DILUPBiCGStab:  Solving for k, Initial residual = 0.0049830059, Final residual = 1.8542883e-05, No Iterations 1
ExecutionTime = 40.17 s  ClockTime = 40 s

Time = 75

DILUPBiCGStab:  Solving for Ux, Initial residual = 0.0013214012, Final residual = 8.7425613e-07, No Iterations 1
DILUPBiCGStab:  Solving for Uy, Initial residual = 0.0025514593, Final residual = 1.6152845e-06, No Iterations 1
DILUPBiCGStab:  Solving for e, Initial residual = 0.013102759, Final residual = 1.304909e-05, No Iterations 1
GAMG:  Solving for p, Initial residual = 0.0081752226, Final residual = 7.0338195e-05, No Iterations 12
time step continuity errors : sum local = 0.00012559685, global = -1.4623185e-05, cumulative = 0.0011962185
DILUPBiCGStab:  Solving for omega, Initial residual = 3.3744802e-06, Final residual = 1.8503965e-08, No Iterations 1
DILUPBiCGStab:  Solving for k, Initial residual = 0.0049301527, Final residual = 1.8464303e-05, No Iterations 1
ExecutionTime = 40.65 s  ClockTime = 41 s

Time = 76

DILUPBiCGStab:  Solving for Ux, Initial residual = 0.0013122981, Final residual = 8.635899e-07, No Iterations 1
DILUPBiCGStab:  Solving for Uy, Initial residual = 0.002528485, Final residual = 1.5707237e-06, No Iterations 1
DILUPBiCGStab:  Solving for e, Initial residual = 0.013130044, Final residual = 1.303114e-05, No Iterations 1
GAMG:  Solving for p, Initial residual = 0.0081836328, Final residual = 6.79237e-05, No Iterations 12
time step continuity errors : sum local = 0.0001199661, global = -1.3882641e-05, cumulative = 0.0011823359
DILUPBiCGStab:  Solving for omega, Initial residual = 3.3320495e-06, Final residual = 1.8412774e-08, No Iterations 1
DILUPBiCGStab:  Solving for k, Initial residual = 0.0048795042, Final residual = 1.8396222e-05, No Iterations 1
ExecutionTime = 41.13 s  ClockTime = 41 s

Time = 77

DILUPBiCGStab:  Solving for Ux, Initial residual = 0.00130358, Final residual = 8.5328257e-07, No Iterations 1
DILUPBiCGStab:  Solving for Uy, Initial residual = 0.0025187508, Final residual = 1.5461701e-06, No Iterations 1
DILUPBiCGStab:  Solving for e, Initial residual = 0.013158671, Final residual = 1.3016786e-05, No Iterations 1
GAMG:  Solving for p, Initial residual = 0.0081924737, Final residual = 8.1582562e-05, No Iterations 10
time step continuity errors : sum local = 0.00014252021, global = -1.6086582e-05, cumulative = 0.0011662493
DILUPBiCGStab:  Solving for omega, Initial residual = 3.2854004e-06, Final residual = 1.8025883e-08, No Iterations 1
DILUPBiCGStab:  Solving for k, Initial residual = 0.0048311177, Final residual = 1.8340581e-05, No Iterations 1
ExecutionTime = 41.58 s  ClockTime = 42 s

Time = 78

DILUPBiCGStab:  Solving for Ux, Initial residual = 0.0012952876, Final residual = 8.4325109e-07, No Iterations 1
DILUPBiCGStab:  Solving for Uy, Initial residual = 0.0025217863, Final residual = 1.5396125e-06, No Iterations 1
DILUPBiCGStab:  Solving for e, Initial residual = 0.013188162, Final residual = 1.3004719e-05, No Iterations 1
GAMG:  Solving for p, Initial residual = 0.0082078883, Final residual = 7.1697564e-05, No Iterations 12
time step continuity errors : sum local = 0.00012388524, global = -1.4156666e-05, cumulative = 0.0011520926
DILUPBiCGStab:  Solving for omega, Initial residual = 3.2262712e-06, Final residual = 1.8083191e-08, No Iterations 1
DILUPBiCGStab:  Solving for k, Initial residual = 0.0047848782, Final residual = 1.8296765e-05, No Iterations 1
ExecutionTime = 42.06 s  ClockTime = 42 s

Time = 79

DILUPBiCGStab:  Solving for Ux, Initial residual = 0.00128708, Final residual = 8.3336324e-07, No Iterations 1
DILUPBiCGStab:  Solving for Uy, Initial residual = 0.0024989772, Final residual = 1.4982955e-06, No Iterations 1
DILUPBiCGStab:  Solving for e, Initial residual = 0.013219589, Final residual = 1.2997732e-05, No Iterations 1
GAMG:  Solving for p, Initial residual = 0.0082163716, Final residual = 6.9506268e-05, No Iterations 12
time step continuity errors : sum local = 0.00011878734, global = -1.3511389e-05, cumulative = 0.0011385813
DILUPBiCGStab:  Solving for omega, Initial residual = 3.1892367e-06, Final residual = 1.8212472e-08, No Iterations 1
DILUPBiCGStab:  Solving for k, Initial residual = 0.0047407242, Final residual = 1.8263881e-05, No Iterations 1
ExecutionTime = 42.54 s  ClockTime = 43 s

Time = 80

DILUPBiCGStab:  Solving for Ux, Initial residual = 0.0012791642, Final residual = 8.2377634e-07, No Iterations 1
DILUPBiCGStab:  Solving for Uy, Initial residual = 0.0024880591, Final residual = 1.4754463e-06, No Iterations 1
DILUPBiCGStab:  Solving for e, Initial residual = 0.013254308, Final residual = 1.299327e-05, No Iterations 1
GAMG:  Solving for p, Initial residual = 0.0082243477, Final residual = 6.794307e-05, No Iterations 12
time step continuity errors : sum local = 0.00011484643, global = -1.2992803e-05, cumulative = 0.0011255885
DILUPBiCGStab:  Solving for omega, Initial residual = 3.1549579e-06, Final residual = 1.8188083e-08, No Iterations 1
DILUPBiCGStab:  Solving for k, Initial residual = 0.0046986516, Final residual = 1.8247712e-05, No Iterations 1
ExecutionTime = 43.02 s  ClockTime = 43 s

Time = 81

DILUPBiCGStab:  Solving for Ux, Initial residual = 0.0012715464, Final residual = 8.144335e-07, No Iterations 1
DILUPBiCGStab:  Solving for Uy, Initial residual = 0.0024831983, Final residual = 1.4601911e-06, No Iterations 1
DILUPBiCGStab:  Solving for e, Initial residual = 0.013292155, Final residual = 1.2992165e-05, No Iterations 1
GAMG:  Solving for p, Initial residual = 0.0082330486, Final residual = 6.8122462e-05, No Iterations 12
time step continuity errors : sum local = 0.00011388991, global = -1.279252e-05, cumulative = 0.0011127959
DILUPBiCGStab:  Solving for omega, Initial residual = 3.1077572e-06, Final residual = 1.8008129e-08, No Iterations 1
DILUPBiCGStab:  Solving for k, Initial residual = 0.0046587531, Final residual = 1.8243699e-05, No Iterations 1
ExecutionTime = 43.51 s  ClockTime = 44 s

Time = 82

DILUPBiCGStab:  Solving for Ux, Initial residual = 0.0012642253, Final residual = 8.0527924e-07, No Iterations 1
DILUPBiCGStab:  Solving for Uy, Initial residual = 0.0024763135, Final residual = 1.4422141e-06, No Iterations 1
DILUPBiCGStab:  Solving for e, Initial residual = 0.013331756, Final residual = 1.2993557e-05, No Iterations 1
GAMG:  Solving for p, Initial residual = 0.0082419273, Final residual = 6.936792e-05, No Iterations 12
time step continuity errors : sum local = 0.00011470266, global = -1.2791523e-05, cumulative = 0.0011000044
DILUPBiCGStab:  Solving for omega, Initial residual = 3.0632334e-06, Final residual = 1.7863196e-08, No Iterations 1
DILUPBiCGStab:  Solving for k, Initial residual = 0.0046210839, Final residual = 1.8258805e-05, No Iterations 1
ExecutionTime = 43.99 s  ClockTime = 44 s

Time = 83

DILUPBiCGStab:  Solving for Ux, Initial residual = 0.0012571393, Final residual = 7.963183e-07, No Iterations 1
DILUPBiCGStab:  Solving for Uy, Initial residual = 0.002466183, Final residual = 1.4210469e-06, No Iterations 1
DILUPBiCGStab:  Solving for e, Initial residual = 0.013371993, Final residual = 1.2998033e-05, No Iterations 1
GAMG:  Solving for p, Initial residual = 0.0082512273, Final residual = 7.073787e-05, No Iterations 12
time step continuity errors : sum local = 0.00011568685, global = -1.2826927e-05, cumulative = 0.0010871775
DILUPBiCGStab:  Solving for omega, Initial residual = 3.024895e-06, Final residual = 1.7983097e-08, No Iterations 1
DILUPBiCGStab:  Solving for k, Initial residual = 0.0045855675, Final residual = 1.8286153e-05, No Iterations 1
ExecutionTime = 44.47 s  ClockTime = 45 s

Time = 84

DILUPBiCGStab:  Solving for Ux, Initial residual = 0.0012502528, Final residual = 7.8756788e-07, No Iterations 1
DILUPBiCGStab:  Solving for Uy, Initial residual = 0.0024546608, Final residual = 1.3986225e-06, No Iterations 1
DILUPBiCGStab:  Solving for e, Initial residual = 0.013413893, Final residual = 1.3005923e-05, No Iterations 1
GAMG:  Solving for p, Initial residual = 0.0082596863, Final residual = 7.1824722e-05, No Iterations 12
time step continuity errors : sum local = 0.00011617711, global = -1.2817858e-05, cumulative = 0.0010743596
DILUPBiCGStab:  Solving for omega, Initial residual = 2.9913083e-06, Final residual = 1.8137206e-08, No Iterations 1
DILUPBiCGStab:  Solving for k, Initial residual = 0.0045523123, Final residual = 1.8337409e-05, No Iterations 1
ExecutionTime = 44.94 s  ClockTime = 45 s

Time = 85

DILUPBiCGStab:  Solving for Ux, Initial residual = 0.001243564, Final residual = 7.790044e-07, No Iterations 1
DILUPBiCGStab:  Solving for Uy, Initial residual = 0.0024437436, Final residual = 1.3781197e-06, No Iterations 1
DILUPBiCGStab:  Solving for e, Initial residual = 0.013460296, Final residual = 1.3016543e-05, No Iterations 1
GAMG:  Solving for p, Initial residual = 0.0082699164, Final residual = 7.2758052e-05, No Iterations 12
time step continuity errors : sum local = 0.00011639629, global = -1.2774003e-05, cumulative = 0.0010615856
DILUPBiCGStab:  Solving for omega, Initial residual = 2.9574511e-06, Final residual = 1.8145207e-08, No Iterations 1
DILUPBiCGStab:  Solving for k, Initial residual = 0.0045213272, Final residual = 1.840882e-05, No Iterations 1
ExecutionTime = 45.42 s  ClockTime = 46 s

Time = 86

DILUPBiCGStab:  Solving for Ux, Initial residual = 0.0012371213, Final residual = 7.7062651e-07, No Iterations 1
DILUPBiCGStab:  Solving for Uy, Initial residual = 0.0024339614, Final residual = 1.3604828e-06, No Iterations 1
DILUPBiCGStab:  Solving for e, Initial residual = 0.013508767, Final residual = 1.3030916e-05, No Iterations 1
GAMG:  Solving for p, Initial residual = 0.0082823985, Final residual = 7.3669486e-05, No Iterations 12
time step continuity errors : sum local = 0.00011656114, global = -1.2706632e-05, cumulative = 0.001048879
DILUPBiCGStab:  Solving for omega, Initial residual = 2.9123801e-06, Final residual = 1.7911599e-08, No Iterations 1
DILUPBiCGStab:  Solving for k, Initial residual = 0.0044928783, Final residual = 1.8508485e-05, No Iterations 1
ExecutionTime = 45.9 s  ClockTime = 46 s

Time = 87

DILUPBiCGStab:  Solving for Ux, Initial residual = 0.0012308818, Final residual = 7.6240367e-07, No Iterations 1
DILUPBiCGStab:  Solving for Uy, Initial residual = 0.0024243466, Final residual = 1.3437659e-06, No Iterations 1
DILUPBiCGStab:  Solving for e, Initial residual = 0.013558294, Final residual = 1.3047816e-05, No Iterations 1
GAMG:  Solving for p, Initial residual = 0.0082944334, Final residual = 7.4594513e-05, No Iterations 12
time step continuity errors : sum local = 0.0001167287, global = -1.262744e-05, cumulative = 0.0010362516
DILUPBiCGStab:  Solving for omega, Initial residual = 2.8719149e-06, Final residual = 1.7821511e-08, No Iterations 1
DILUPBiCGStab:  Solving for k, Initial residual = 0.004466927, Final residual = 1.8634555e-05, No Iterations 1
ExecutionTime = 46.38 s  ClockTime = 47 s

Time = 88

DILUPBiCGStab:  Solving for Ux, Initial residual = 0.0012248545, Final residual = 7.5435542e-07, No Iterations 1
DILUPBiCGStab:  Solving for Uy, Initial residual = 0.0024151294, Final residual = 1.3270985e-06, No Iterations 1
DILUPBiCGStab:  Solving for e, Initial residual = 0.013608769, Final residual = 1.3067697e-05, No Iterations 1
GAMG:  Solving for p, Initial residual = 0.0083051498, Final residual = 7.5526563e-05, No Iterations 12
time step continuity errors : sum local = 0.0001168886, global = -1.2533323e-05, cumulative = 0.0010237182
DILUPBiCGStab:  Solving for omega, Initial residual = 2.8369173e-06, Final residual = 1.7882194e-08, No Iterations 1
DILUPBiCGStab:  Solving for k, Initial residual = 0.0044435978, Final residual = 1.8791602e-05, No Iterations 1
ExecutionTime = 46.86 s  ClockTime = 47 s

Time = 89

DILUPBiCGStab:  Solving for Ux, Initial residual = 0.0012190068, Final residual = 7.4645274e-07, No Iterations 1
DILUPBiCGStab:  Solving for Uy, Initial residual = 0.0024060958, Final residual = 1.3098362e-06, No Iterations 1
DILUPBiCGStab:  Solving for e, Initial residual = 0.013662243, Final residual = 1.3090978e-05, No Iterations 1
GAMG:  Solving for p, Initial residual = 0.0083159726, Final residual = 7.6391854e-05, No Iterations 12
time step continuity errors : sum local = 0.0001169277, global = -1.2414953e-05, cumulative = 0.0010113033
DILUPBiCGStab:  Solving for omega, Initial residual = 2.8029438e-06, Final residual = 1.7966322e-08, No Iterations 1
DILUPBiCGStab:  Solving for k, Initial residual = 0.0044228965, Final residual = 1.8983759e-05, No Iterations 1
ExecutionTime = 47.35 s  ClockTime = 48 s

Time = 90

DILUPBiCGStab:  Solving for Ux, Initial residual = 0.0012133351, Final residual = 7.3869387e-07, No Iterations 1
DILUPBiCGStab:  Solving for Uy, Initial residual = 0.0023968718, Final residual = 1.2928023e-06, No Iterations 1
DILUPBiCGStab:  Solving for e, Initial residual = 0.013719311, Final residual = 1.3117016e-05, No Iterations 1
GAMG:  Solving for p, Initial residual = 0.0083260443, Final residual = 7.7144908e-05, No Iterations 12
time step continuity errors : sum local = 0.0001167806, global = -1.2269547e-05, cumulative = 0.00099903373
DILUPBiCGStab:  Solving for omega, Initial residual = 2.7671348e-06, Final residual = 1.7968893e-08, No Iterations 1
DILUPBiCGStab:  Solving for k, Initial residual = 0.0044050513, Final residual = 1.921461e-05, No Iterations 1
ExecutionTime = 47.83 s  ClockTime = 48 s

Time = 91

DILUPBiCGStab:  Solving for Ux, Initial residual = 0.0012077679, Final residual = 7.3104276e-07, No Iterations 1
DILUPBiCGStab:  Solving for Uy, Initial residual = 0.0023867769, Final residual = 1.2761622e-06, No Iterations 1
DILUPBiCGStab:  Solving for e, Initial residual = 0.013777688, Final residual = 1.3146209e-05, No Iterations 1
GAMG:  Solving for p, Initial residual = 0.0083377353, Final residual = 7.7949517e-05, No Iterations 12
time step continuity errors : sum local = 0.00011669829, global = -1.2132033e-05, cumulative = 0.0009869017
DILUPBiCGStab:  Solving for omega, Initial residual = 2.721434e-06, Final residual = 1.7703463e-08, No Iterations 1
DILUPBiCGStab:  Solving for k, Initial residual = 0.0043904184, Final residual = 1.949315e-05, No Iterations 1
ExecutionTime = 48.3 s  ClockTime = 49 s

Time = 92

DILUPBiCGStab:  Solving for Ux, Initial residual = 0.0012024064, Final residual = 7.2353965e-07, No Iterations 1
DILUPBiCGStab:  Solving for Uy, Initial residual = 0.0023764612, Final residual = 1.2599306e-06, No Iterations 1
DILUPBiCGStab:  Solving for e, Initial residual = 0.013836661, Final residual = 1.3177895e-05, No Iterations 1
GAMG:  Solving for p, Initial residual = 0.0083494402, Final residual = 7.8750228e-05, No Iterations 12
time step continuity errors : sum local = 0.00011659638, global = -1.1980416e-05, cumulative = 0.00097492128
DILUPBiCGStab:  Solving for omega, Initial residual = 2.678756e-06, Final residual = 1.7578319e-08, No Iterations 1
DILUPBiCGStab:  Solving for k, Initial residual = 0.0043790716, Final residual = 1.9822081e-05, No Iterations 1
ExecutionTime = 48.78 s  ClockTime = 49 s

Time = 93

DILUPBiCGStab:  Solving for Ux, Initial residual = 0.0011971989, Final residual = 7.1616632e-07, No Iterations 1
DILUPBiCGStab:  Solving for Uy, Initial residual = 0.0023663707, Final residual = 1.2442468e-06, No Iterations 1
DILUPBiCGStab:  Solving for e, Initial residual = 0.013897496, Final residual = 1.3212178e-05, No Iterations 1
GAMG:  Solving for p, Initial residual = 0.0083620829, Final residual = 7.9482248e-05, No Iterations 12
time step continuity errors : sum local = 0.00011638038, global = -1.1786342e-05, cumulative = 0.00096313494
DILUPBiCGStab:  Solving for omega, Initial residual = 2.6378607e-06, Final residual = 1.751479e-08, No Iterations 1
DILUPBiCGStab:  Solving for k, Initial residual = 0.0043712895, Final residual = 2.0207085e-05, No Iterations 1
ExecutionTime = 49.26 s  ClockTime = 49 s

Time = 94

DILUPBiCGStab:  Solving for Ux, Initial residual = 0.0011921806, Final residual = 7.0893163e-07, No Iterations 1
DILUPBiCGStab:  Solving for Uy, Initial residual = 0.002356176, Final residual = 1.2285805e-06, No Iterations 1
[...]
DILUPBiCGStab:  Solving for omega, Initial residual = 1.4460909e-06, Final residual = 1.7038866e-08, No Iterations 1
DILUPBiCGStab:  Solving for k, Initial residual = 0.0097967251, Final residual = 5.5311736e-05, No Iterations 1
ExecutionTime = 98.15 s  ClockTime = 98 s

Time = 178

DILUPBiCGStab:  Solving for Ux, Initial residual = 0.0011117084, Final residual = 3.6722178e-07, No Iterations 1
DILUPBiCGStab:  Solving for Uy, Initial residual = 0.0019459326, Final residual = 6.8332641e-07, No Iterations 1
DILUPBiCGStab:  Solving for e, Initial residual = 0.019458766, Final residual = 2.9758345e-05, No Iterations 1
GAMG:  Solving for p, Initial residual = 0.0058674355, Final residual = 5.6005328e-05, No Iterations 28
time step continuity errors : sum local = 5.0383847e-05, global = 8.1551847e-07, cumulative = 0.0010988692
DILUPBiCGStab:  Solving for omega, Initial residual = 1.4675829e-06, Final residual = 1.7593982e-08, No Iterations 1
DILUPBiCGStab:  Solving for k, Initial residual = 0.0096988924, Final residual = 5.4462784e-05, No Iterations 1
ExecutionTime = 98.82 s  ClockTime = 99 s

Time = 179

DILUPBiCGStab:  Solving for Ux, Initial residual = 0.0011127617, Final residual = 3.6456492e-07, No Iterations 1
DILUPBiCGStab:  Solving for Uy, Initial residual = 0.0019437558, Final residual = 6.827253e-07, No Iterations 1
DILUPBiCGStab:  Solving for e, Initial residual = 0.019480529, Final residual = 3.0178126e-05, No Iterations 1
GAMG:  Solving for p, Initial residual = 0.0057847505, Final residual = 5.3109054e-05, No Iterations 28
time step continuity errors : sum local = 4.7998607e-05, global = 6.5340299e-07, cumulative = 0.0010995226
DILUPBiCGStab:  Solving for omega, Initial residual = 1.4917848e-06, Final residual = 1.8177862e-08, No Iterations 1
DILUPBiCGStab:  Solving for k, Initial residual = 0.0095891902, Final residual = 5.3569421e-05, No Iterations 1
ExecutionTime = 99.5 s  ClockTime = 100 s

Time = 180

DILUPBiCGStab:  Solving for Ux, Initial residual = 0.0011138292, Final residual = 3.6200179e-07, No Iterations 1
DILUPBiCGStab:  Solving for Uy, Initial residual = 0.001936467, Final residual = 6.8250618e-07, No Iterations 1
DILUPBiCGStab:  Solving for e, Initial residual = 0.019502657, Final residual = 3.0603138e-05, No Iterations 1
GAMG:  Solving for p, Initial residual = 0.0056999182, Final residual = 4.9586042e-05, No Iterations 28
time step continuity errors : sum local = 4.5026522e-05, global = 4.5707065e-07, cumulative = 0.0010999797
DILUPBiCGStab:  Solving for omega, Initial residual = 1.5183138e-06, Final residual = 1.8785296e-08, No Iterations 1
DILUPBiCGStab:  Solving for k, Initial residual = 0.0094675539, Final residual = 5.2637002e-05, No Iterations 1
ExecutionTime = 100.18 s  ClockTime = 100 s

Time = 181

DILUPBiCGStab:  Solving for Ux, Initial residual = 0.0011148614, Final residual = 3.5955119e-07, No Iterations 1
DILUPBiCGStab:  Solving for Uy, Initial residual = 0.0019395141, Final residual = 6.81387e-07, No Iterations 1
DILUPBiCGStab:  Solving for e, Initial residual = 0.019523463, Final residual = 3.1032157e-05, No Iterations 1
GAMG:  Solving for p, Initial residual = 0.0056167934, Final residual = 4.5486855e-05, No Iterations 28
time step continuity errors : sum local = 4.1494949e-05, global = 4.2267654e-07, cumulative = 0.0011004023
DILUPBiCGStab:  Solving for omega, Initial residual = 1.5469212e-06, Final residual = 1.9410745e-08, No Iterations 1
DILUPBiCGStab:  Solving for k, Initial residual = 0.0093340153, Final residual = 5.1666427e-05, No Iterations 1
ExecutionTime = 100.85 s  ClockTime = 101 s

Time = 182

DILUPBiCGStab:  Solving for Ux, Initial residual = 0.001115899, Final residual = 3.5724424e-07, No Iterations 1
DILUPBiCGStab:  Solving for Uy, Initial residual = 0.0019454787, Final residual = 6.8006399e-07, No Iterations 1
DILUPBiCGStab:  Solving for e, Initial residual = 0.01954155, Final residual = 3.146503e-05, No Iterations 1
GAMG:  Solving for p, Initial residual = 0.0055354883, Final residual = 4.078428e-05, No Iterations 28
time step continuity errors : sum local = 3.7375851e-05, global = 7.0750493e-07, cumulative = 0.0011011099
DILUPBiCGStab:  Solving for omega, Initial residual = 1.5774905e-06, Final residual = 2.005564e-08, No Iterations 1
DILUPBiCGStab:  Solving for k, Initial residual = 0.0091888588, Final residual = 5.0661604e-05, No Iterations 1
ExecutionTime = 101.53 s  ClockTime = 102 s

Time = 183

DILUPBiCGStab:  Solving for Ux, Initial residual = 0.0011169474, Final residual = 3.5509788e-07, No Iterations 1
DILUPBiCGStab:  Solving for Uy, Initial residual = 0.001949692, Final residual = 6.7909539e-07, No Iterations 1
DILUPBiCGStab:  Solving for e, Initial residual = 0.01955993, Final residual = 3.1901377e-05, No Iterations 1
GAMG:  Solving for p, Initial residual = 0.0054552549, Final residual = 3.9022263e-05, No Iterations 28
time step continuity errors : sum local = 3.5926831e-05, global = 2.0830746e-06, cumulative = 0.0011031929
DILUPBiCGStab:  Solving for omega, Initial residual = 1.6092996e-06, Final residual = 2.0710339e-08, No Iterations 1
DILUPBiCGStab:  Solving for k, Initial residual = 0.0090325353, Final residual = 4.9627392e-05, No Iterations 1
ExecutionTime = 102.19 s  ClockTime = 102 s

Time = 184

DILUPBiCGStab:  Solving for Ux, Initial residual = 0.0011179486, Final residual = 3.5309936e-07, No Iterations 1
DILUPBiCGStab:  Solving for Uy, Initial residual = 0.0019655188, Final residual = 6.7662729e-07, No Iterations 1
DILUPBiCGStab:  Solving for e, Initial residual = 0.01957723, Final residual = 3.2339918e-05, No Iterations 1
GAMG:  Solving for p, Initial residual = 0.0053800347, Final residual = 3.8622037e-05, No Iterations 28
time step continuity errors : sum local = 3.5717795e-05, global = 1.7828916e-06, cumulative = 0.0011049758
DILUPBiCGStab:  Solving for omega, Initial residual = 1.6508027e-06, Final residual = 2.1369223e-08, No Iterations 1
DILUPBiCGStab:  Solving for k, Initial residual = 0.0088656414, Final residual = 4.8568647e-05, No Iterations 1
ExecutionTime = 102.87 s  ClockTime = 103 s

Time = 185

DILUPBiCGStab:  Solving for Ux, Initial residual = 0.0011189454, Final residual = 3.5128012e-07, No Iterations 1
DILUPBiCGStab:  Solving for Uy, Initial residual = 0.0019831613, Final residual = 6.7744775e-07, No Iterations 1
DILUPBiCGStab:  Solving for e, Initial residual = 0.019591693, Final residual = 3.2780168e-05, No Iterations 1
GAMG:  Solving for p, Initial residual = 0.0053081141, Final residual = 3.8110609e-05, No Iterations 28
time step continuity errors : sum local = 3.5410107e-05, global = 1.9391098e-06, cumulative = 0.0011069149
DILUPBiCGStab:  Solving for omega, Initial residual = 1.7001275e-06, Final residual = 2.2032978e-08, No Iterations 1
DILUPBiCGStab:  Solving for k, Initial residual = 0.0086889069, Final residual = 4.7490516e-05, No Iterations 1
ExecutionTime = 103.54 s  ClockTime = 104 s

Time = 186

DILUPBiCGStab:  Solving for Ux, Initial residual = 0.0011200916, Final residual = 3.4968538e-07, No Iterations 1
DILUPBiCGStab:  Solving for Uy, Initial residual = 0.0019714197, Final residual = 6.7580125e-07, No Iterations 1
DILUPBiCGStab:  Solving for e, Initial residual = 0.019606107, Final residual = 3.3222314e-05, No Iterations 1
GAMG:  Solving for p, Initial residual = 0.0052330906, Final residual = 4.7948068e-05, No Iterations 26
time step continuity errors : sum local = 4.4769673e-05, global = 1.6993964e-09, cumulative = 0.0011069166
DILUPBiCGStab:  Solving for omega, Initial residual = 1.7599556e-06, Final residual = 2.2705866e-08, No Iterations 1
DILUPBiCGStab:  Solving for k, Initial residual = 0.008503159, Final residual = 4.6398185e-05, No Iterations 1
ExecutionTime = 104.19 s  ClockTime = 104 s

Time = 187

DILUPBiCGStab:  Solving for Ux, Initial residual = 0.0011212534, Final residual = 3.4827726e-07, No Iterations 1
DILUPBiCGStab:  Solving for Uy, Initial residual = 0.0019589419, Final residual = 6.7542443e-07, No Iterations 1
DILUPBiCGStab:  Solving for e, Initial residual = 0.019619618, Final residual = 3.3665139e-05, No Iterations 1
GAMG:  Solving for p, Initial residual = 0.0051612042, Final residual = 4.8206281e-05, No Iterations 26
time step continuity errors : sum local = 4.523532e-05, global = 2.465881e-06, cumulative = 0.0011093825
DILUPBiCGStab:  Solving for omega, Initial residual = 1.8205327e-06, Final residual = 2.337608e-08, No Iterations 1
DILUPBiCGStab:  Solving for k, Initial residual = 0.0083093694, Final residual = 4.5313591e-05, No Iterations 1
ExecutionTime = 104.83 s  ClockTime = 105 s

Time = 188

DILUPBiCGStab:  Solving for Ux, Initial residual = 0.0011222325, Final residual = 3.469706e-07, No Iterations 1
DILUPBiCGStab:  Solving for Uy, Initial residual = 0.0019824761, Final residual = 6.7324954e-07, No Iterations 1
DILUPBiCGStab:  Solving for e, Initial residual = 0.019629756, Final residual = 3.4105272e-05, No Iterations 1
GAMG:  Solving for p, Initial residual = 0.0050909583, Final residual = 4.9391129e-05, No Iterations 26
time step continuity errors : sum local = 4.6545376e-05, global = 2.6561031e-06, cumulative = 0.0011120386
DILUPBiCGStab:  Solving for omega, Initial residual = 1.8816444e-06, Final residual = 2.4040548e-08, No Iterations 1
DILUPBiCGStab:  Solving for k, Initial residual = 0.0081085871, Final residual = 4.421951e-05, No Iterations 1
ExecutionTime = 105.49 s  ClockTime = 106 s

Time = 189

DILUPBiCGStab:  Solving for Ux, Initial residual = 0.0011238891, Final residual = 3.4599316e-07, No Iterations 1
DILUPBiCGStab:  Solving for Uy, Initial residual = 0.0020167493, Final residual = 6.7548177e-07, No Iterations 1
DILUPBiCGStab:  Solving for e, Initial residual = 0.019639175, Final residual = 3.4543139e-05, No Iterations 1
GAMG:  Solving for p, Initial residual = 0.0050262864, Final residual = 4.8264777e-05, No Iterations 28
time step continuity errors : sum local = 4.5693377e-05, global = 3.3808016e-06, cumulative = 0.0011154194
DILUPBiCGStab:  Solving for omega, Initial residual = 1.9503763e-06, Final residual = 2.4692502e-08, No Iterations 1
DILUPBiCGStab:  Solving for k, Initial residual = 0.0079019135, Final residual = 4.3118887e-05, No Iterations 1
ExecutionTime = 106.16 s  ClockTime = 106 s

Time = 190

DILUPBiCGStab:  Solving for Ux, Initial residual = 0.0011270198, Final residual = 3.4573918e-07, No Iterations 1
DILUPBiCGStab:  Solving for Uy, Initial residual = 0.0019989111, Final residual = 6.7346064e-07, No Iterations 1
DILUPBiCGStab:  Solving for e, Initial residual = 0.019647819, Final residual = 3.4979399e-05, No Iterations 1
GAMG:  Solving for p, Initial residual = 0.0049549934, Final residual = 4.6787851e-05, No Iterations 28
time step continuity errors : sum local = 4.4517569e-05, global = 3.6848941e-06, cumulative = 0.0011191043
DILUPBiCGStab:  Solving for omega, Initial residual = 2.0269057e-06, Final residual = 2.5327011e-08, No Iterations 1
DILUPBiCGStab:  Solving for k, Initial residual = 0.0076906781, Final residual = 4.2012866e-05, No Iterations 1
ExecutionTime = 106.82 s  ClockTime = 107 s

Time = 191

DILUPBiCGStab:  Solving for Ux, Initial residual = 0.0011308315, Final residual = 3.4586242e-07, No Iterations 1
DILUPBiCGStab:  Solving for Uy, Initial residual = 0.0019850003, Final residual = 6.7180862e-07, No Iterations 1
DILUPBiCGStab:  Solving for e, Initial residual = 0.019652978, Final residual = 3.5411444e-05, No Iterations 1
GAMG:  Solving for p, Initial residual = 0.0048828717, Final residual = 4.2089461e-05, No Iterations 26
time step continuity errors : sum local = 4.0245059e-05, global = 2.6069998e-06, cumulative = 0.0011217113
DILUPBiCGStab:  Solving for omega, Initial residual = 2.1049989e-06, Final residual = 2.5956203e-08, No Iterations 1
DILUPBiCGStab:  Solving for k, Initial residual = 0.0074765708, Final residual = 4.0902826e-05, No Iterations 1
ExecutionTime = 107.47 s  ClockTime = 108 s

Time = 192

DILUPBiCGStab:  Solving for Ux, Initial residual = 0.0011353387, Final residual = 3.4628669e-07, No Iterations 1
DILUPBiCGStab:  Solving for Uy, Initial residual = 0.0019824354, Final residual = 6.7158141e-07, No Iterations 1
DILUPBiCGStab:  Solving for e, Initial residual = 0.019656462, Final residual = 3.5838365e-05, No Iterations 1
GAMG:  Solving for p, Initial residual = 0.0048101402, Final residual = 4.7394367e-05, No Iterations 25
time step continuity errors : sum local = 4.5541336e-05, global = -4.0881355e-06, cumulative = 0.0011176232
DILUPBiCGStab:  Solving for omega, Initial residual = 2.1824736e-06, Final residual = 2.6561719e-08, No Iterations 1
DILUPBiCGStab:  Solving for k, Initial residual = 0.0072608255, Final residual = 3.9795238e-05, No Iterations 1
ExecutionTime = 108.11 s  ClockTime = 108 s

Time = 193

DILUPBiCGStab:  Solving for Ux, Initial residual = 0.0011400104, Final residual = 3.4686623e-07, No Iterations 1
DILUPBiCGStab:  Solving for Uy, Initial residual = 0.0019960524, Final residual = 6.7023706e-07, No Iterations 1
DILUPBiCGStab:  Solving for e, Initial residual = 0.019658633, Final residual = 3.6257849e-05, No Iterations 1
GAMG:  Solving for p, Initial residual = 0.0047436591, Final residual = 4.7394371e-05, No Iterations 26
time step continuity errors : sum local = 4.5751026e-05, global = 3.0898986e-06, cumulative = 0.0011207131
DILUPBiCGStab:  Solving for omega, Initial residual = 2.2376067e-06, Final residual = 2.7068939e-08, No Iterations 1
DILUPBiCGStab:  Solving for k, Initial residual = 0.0069819567, Final residual = 3.8666082e-05, No Iterations 1
ExecutionTime = 108.76 s  ClockTime = 109 s

Time = 194

DILUPBiCGStab:  Solving for Ux, Initial residual = 0.0011448299, Final residual = 3.4748582e-07, No Iterations 1
DILUPBiCGStab:  Solving for Uy, Initial residual = 0.0020500022, Final residual = 6.7366076e-07, No Iterations 1
DILUPBiCGStab:  Solving for e, Initial residual = 0.019656754, Final residual = 3.6667802e-05, No Iterations 1
GAMG:  Solving for p, Initial residual = 0.0046801306, Final residual = 4.2852356e-05, No Iterations 32
time step continuity errors : sum local = 4.1539097e-05, global = 3.6809195e-06, cumulative = 0.001124394
DILUPBiCGStab:  Solving for omega, Initial residual = 2.3038649e-06, Final residual = 2.7530238e-08, No Iterations 1
DILUPBiCGStab:  Solving for k, Initial residual = 0.0066435398, Final residual = 3.7635208e-05, No Iterations 1
ExecutionTime = 109.48 s  ClockTime = 110 s

Time = 195

DILUPBiCGStab:  Solving for Ux, Initial residual = 0.0011504267, Final residual = 3.482571e-07, No Iterations 1
DILUPBiCGStab:  Solving for Uy, Initial residual = 0.0020381409, Final residual = 6.7025857e-07, No Iterations 1
DILUPBiCGStab:  Solving for e, Initial residual = 0.019652552, Final residual = 3.707055e-05, No Iterations 1
GAMG:  Solving for p, Initial residual = 0.0046087313, Final residual = 4.3070976e-05, No Iterations 32
time step continuity errors : sum local = 4.1953978e-05, global = 3.811039e-06, cumulative = 0.001128205
DILUPBiCGStab:  Solving for omega, Initial residual = 2.3714316e-06, Final residual = 2.7936489e-08, No Iterations 1
DILUPBiCGStab:  Solving for k, Initial residual = 0.006280005, Final residual = 3.6470196e-05, No Iterations 1
ExecutionTime = 110.19 s  ClockTime = 110 s

Time = 196

DILUPBiCGStab:  Solving for Ux, Initial residual = 0.0011560143, Final residual = 3.4901549e-07, No Iterations 1
DILUPBiCGStab:  Solving for Uy, Initial residual = 0.0020281783, Final residual = 6.6706751e-07, No Iterations 1
DILUPBiCGStab:  Solving for e, Initial residual = 0.019646441, Final residual = 3.7462681e-05, No Iterations 1
GAMG:  Solving for p, Initial residual = 0.004540322, Final residual = 4.2152876e-05, No Iterations 32
time step continuity errors : sum local = 4.1260967e-05, global = 3.6342691e-06, cumulative = 0.0011318393
DILUPBiCGStab:  Solving for omega, Initial residual = 2.4408959e-06, Final residual = 2.8287655e-08, No Iterations 1
DILUPBiCGStab:  Solving for k, Initial residual = 0.0059287474, Final residual = 3.527732e-05, No Iterations 1
ExecutionTime = 110.91 s  ClockTime = 111 s

Time = 197

DILUPBiCGStab:  Solving for Ux, Initial residual = 0.0011615049, Final residual = 3.4974436e-07, No Iterations 1
DILUPBiCGStab:  Solving for Uy, Initial residual = 0.0020316013, Final residual = 6.6509777e-07, No Iterations 1
DILUPBiCGStab:  Solving for e, Initial residual = 0.019635349, Final residual = 3.7843008e-05, No Iterations 1
GAMG:  Solving for p, Initial residual = 0.0044736724, Final residual = 4.1352812e-05, No Iterations 32
time step continuity errors : sum local = 4.0669224e-05, global = 3.5332305e-06, cumulative = 0.0011353725
DILUPBiCGStab:  Solving for omega, Initial residual = 2.5102211e-06, Final residual = 2.8584174e-08, No Iterations 1
DILUPBiCGStab:  Solving for k, Initial residual = 0.0055989755, Final residual = 3.4065957e-05, No Iterations 1
ExecutionTime = 111.63 s  ClockTime = 112 s

Time = 198

DILUPBiCGStab:  Solving for Ux, Initial residual = 0.0011668019, Final residual = 3.5042474e-07, No Iterations 1
DILUPBiCGStab:  Solving for Uy, Initial residual = 0.0020408571, Final residual = 6.6376206e-07, No Iterations 1
DILUPBiCGStab:  Solving for e, Initial residual = 0.019620187, Final residual = 3.8210221e-05, No Iterations 1
GAMG:  Solving for p, Initial residual = 0.0044084538, Final residual = 4.3690014e-05, No Iterations 30
time step continuity errors : sum local = 4.3163765e-05, global = 3.850503e-06, cumulative = 0.001139223
DILUPBiCGStab:  Solving for omega, Initial residual = 2.5727704e-06, Final residual = 2.88197e-08, No Iterations 1
DILUPBiCGStab:  Solving for k, Initial residual = 0.0052860345, Final residual = 3.2839661e-05, No Iterations 1
ExecutionTime = 112.33 s  ClockTime = 113 s

Time = 199

DILUPBiCGStab:  Solving for Ux, Initial residual = 0.0011715698, Final residual = 3.5102251e-07, No Iterations 1
DILUPBiCGStab:  Solving for Uy, Initial residual = 0.0020541913, Final residual = 6.625722e-07, No Iterations 1
DILUPBiCGStab:  Solving for e, Initial residual = 0.019601913, Final residual = 3.8562896e-05, No Iterations 1
GAMG:  Solving for p, Initial residual = 0.0043471481, Final residual = 4.0232734e-05, No Iterations 30
time step continuity errors : sum local = 3.9924368e-05, global = 3.7403574e-06, cumulative = 0.0011429634
DILUPBiCGStab:  Solving for omega, Initial residual = 2.6258246e-06, Final residual = 2.8997837e-08, No Iterations 1
DILUPBiCGStab:  Solving for k, Initial residual = 0.0049739375, Final residual = 3.1577347e-05, No Iterations 1
ExecutionTime = 113.02 s  ClockTime = 113 s

Time = 200

DILUPBiCGStab:  Solving for Ux, Initial residual = 0.0011766083, Final residual = 3.5165488e-07, No Iterations 1
DILUPBiCGStab:  Solving for Uy, Initial residual = 0.0020456858, Final residual = 6.5830827e-07, No Iterations 1
DILUPBiCGStab:  Solving for e, Initial residual = 0.01957735, Final residual = 3.8900614e-05, No Iterations 1
GAMG:  Solving for p, Initial residual = 0.0042805016, Final residual = 4.2773147e-05, No Iterations 26
time step continuity errors : sum local = 4.264134e-05, global = 3.9989152e-06, cumulative = 0.0011469623
DILUPBiCGStab:  Solving for omega, Initial residual = 2.6820691e-06, Final residual = 2.9134028e-08, No Iterations 1
DILUPBiCGStab:  Solving for k, Initial residual = 0.0046850498, Final residual = 3.0383459e-05, No Iterations 1
ExecutionTime = 114.49 s  ClockTime = 115 s

    Writing cell-centre field C to 200
    Writing the x component field of the cell-centres Cx to 200
    Writing the y component field of the cell-centres Cy to 200
    Writing the z component field of the cell-centres Cz to 200
wallShearStress wallShearStress write:
    writing field wallShearStress
    min/max(topWall) = (-4.3010981e-08 -8.9007405e-05 0), (2.800424e-08 2.2332471e-05 0)
    min/max(bottomWall) = (-62.073999 -1.1207091 0), (-11.426541 0.00015568058 0)
End

