/*---------------------------------------------------------------------------*\
| =========                 |                                                 |
| \\      /  F ield         | OpenFOAM: The Open Source CFD Toolbox           |
|  \\    /   O peration     | Version:  v1912                                 |
|   \\  /    A nd           | Website:  www.openfoam.com                      |
|    \\/     M anipulation  |                                                 |
\*---------------------------------------------------------------------------*/
Build  : _f3950763fe-20191219 OPENFOAM=1912
Arch   : "LSB;label=32;scalar=64"
Exec   : simpleFoam
Date   : Jun 08 2020
Time   : 12:09:03
Host   : mx
PID    : 20211
I/O    : uncollated
Case   : /home/max/OpenFOAM/max-v1912/run/turbulentFlatPlate_1_SA
nProcs : 1
trapFpe: Floating point exception trapping enabled (FOAM_SIGFPE).
fileModificationChecking : Monitoring run-time modified files using timeStampMaster (fileModificationSkew 10)
allowSystemOperations : Allowing user-supplied system call operations

// * * * * * * * * * * * * * * * * * * * * * * * * * * * * * * * * * * * * * //
Create time

Create mesh for time = 0


SIMPLE: convergence criteria
    field p	 tolerance 1e-05
    field U	 tolerance 1e-05
    field nuTilda	 tolerance 1e-05

Reading field p

Reading field U

Reading/calculating face flux field phi

Selecting incompressible transport model Newtonian
Selecting turbulence model type RAS
Selecting RAS turbulence model SpalartAllmaras
Selecting patchDistMethod meshWave
RAS
{
    RASModel        SpalartAllmaras;
    turbulence      on;
    printCoeffs     on;
    sigmaNut        0.66666;
    kappa           0.41;
    Cb1             0.1355;
    Cb2             0.622;
    Cw2             0.3;
    Cw3             2;
    Cv1             7.1;
    Cs              0.3;
}

No MRF models present

No finite volume options present

Starting time loop

wallShearStress wallShearStress:
    processing all wall patches

Reading set description:
    data

Time = 1

smoothSolver:  Solving for Ux, Initial residual = 1, Final residual = 0.0099740614, No Iterations 2
smoothSolver:  Solving for Uy, Initial residual = 1, Final residual = 0.0080636077, No Iterations 2
GAMG:  Solving for p, Initial residual = 1, Final residual = 0.098897348, No Iterations 69
time step continuity errors : sum local = 1.827962e-06, global = 2.230936e-07, cumulative = 2.230936e-07
smoothSolver:  Solving for nuTilda, Initial residual = 1, Final residual = 0.0043185801, No Iterations 2
ExecutionTime = 2.81 s  ClockTime = 3 s

Time = 2

smoothSolver:  Solving for Ux, Initial residual = 0.1674044, Final residual = 0.0032452545, No Iterations 2
smoothSolver:  Solving for Uy, Initial residual = 0.39974717, Final residual = 0.0046103071, No Iterations 2
GAMG:  Solving for p, Initial residual = 0.0052660093, Final residual = 0.00047146592, No Iterations 47
time step continuity errors : sum local = 3.0990359e-06, global = 4.3139534e-07, cumulative = 6.5448894e-07
smoothSolver:  Solving for nuTilda, Initial residual = 0.17413194, Final residual = 0.0033349167, No Iterations 2
ExecutionTime = 3.54 s  ClockTime = 4 s

Time = 3

smoothSolver:  Solving for Ux, Initial residual = 0.070496335, Final residual = 0.002307211, No Iterations 2
smoothSolver:  Solving for Uy, Initial residual = 0.144907, Final residual = 0.0016855543, No Iterations 2
GAMG:  Solving for p, Initial residual = 0.0063947171, Final residual = 0.00058221432, No Iterations 43
time step continuity errors : sum local = 5.4481119e-06, global = -9.422801e-07, cumulative = -2.8779116e-07
smoothSolver:  Solving for nuTilda, Initial residual = 0.082513101, Final residual = 0.0036531433, No Iterations 2
ExecutionTime = 4.23 s  ClockTime = 4 s

Time = 4

smoothSolver:  Solving for Ux, Initial residual = 0.041249813, Final residual = 0.0018333402, No Iterations 2
smoothSolver:  Solving for Uy, Initial residual = 0.054482709, Final residual = 0.00061262341, No Iterations 2
GAMG:  Solving for p, Initial residual = 0.011077927, Final residual = 0.001091363, No Iterations 47
time step continuity errors : sum local = 6.4045723e-06, global = -1.0763929e-06, cumulative = -1.364184e-06
smoothSolver:  Solving for nuTilda, Initial residual = 0.061432651, Final residual = 0.0037902315, No Iterations 2
ExecutionTime = 4.99 s  ClockTime = 5 s

Time = 5

smoothSolver:  Solving for Ux, Initial residual = 0.028750591, Final residual = 0.0015255087, No Iterations 2
smoothSolver:  Solving for Uy, Initial residual = 0.013284384, Final residual = 0.00011192107, No Iterations 2
GAMG:  Solving for p, Initial residual = 0.083730122, Final residual = 0.0078660188, No Iterations 35
time step continuity errors : sum local = 5.8937498e-06, global = 6.8892945e-07, cumulative = -6.752546e-07
smoothSolver:  Solving for nuTilda, Initial residual = 0.048492111, Final residual = 0.0032952241, No Iterations 2
ExecutionTime = 5.59 s  ClockTime = 6 s

Time = 6

smoothSolver:  Solving for Ux, Initial residual = 0.022136949, Final residual = 0.0013062684, No Iterations 2
smoothSolver:  Solving for Uy, Initial residual = 0.009137533, Final residual = 9.5725871e-05, No Iterations 2
GAMG:  Solving for p, Initial residual = 0.065597222, Final residual = 0.0065168355, No Iterations 31
time step continuity errors : sum local = 6.8632091e-06, global = 1.3914461e-06, cumulative = 7.1619153e-07
smoothSolver:  Solving for nuTilda, Initial residual = 0.039684645, Final residual = 0.0028279728, No Iterations 2
ExecutionTime = 6.14 s  ClockTime = 6 s

Time = 7

smoothSolver:  Solving for Ux, Initial residual = 0.018086062, Final residual = 0.0011420447, No Iterations 2
smoothSolver:  Solving for Uy, Initial residual = 0.011520874, Final residual = 7.9581615e-05, No Iterations 2
GAMG:  Solving for p, Initial residual = 0.055639088, Final residual = 0.0052853559, No Iterations 35
time step continuity errors : sum local = 6.7405486e-06, global = 1.1365846e-06, cumulative = 1.8527761e-06
smoothSolver:  Solving for nuTilda, Initial residual = 0.03345577, Final residual = 0.0024541097, No Iterations 2
ExecutionTime = 6.75 s  ClockTime = 7 s

Time = 8

smoothSolver:  Solving for Ux, Initial residual = 0.015348507, Final residual = 0.0010145423, No Iterations 2
smoothSolver:  Solving for Uy, Initial residual = 0.023119461, Final residual = 0.00024707683, No Iterations 2
GAMG:  Solving for p, Initial residual = 0.01863905, Final residual = 0.0018548399, No Iterations 25
time step continuity errors : sum local = 7.1289764e-06, global = -1.186899e-06, cumulative = 6.6587712e-07
smoothSolver:  Solving for nuTilda, Initial residual = 0.028922561, Final residual = 0.0021608658, No Iterations 2
ExecutionTime = 7.22 s  ClockTime = 7 s

Time = 9

smoothSolver:  Solving for Ux, Initial residual = 0.013359097, Final residual = 0.00091262075, No Iterations 2
smoothSolver:  Solving for Uy, Initial residual = 0.023924067, Final residual = 0.00024905889, No Iterations 2
GAMG:  Solving for p, Initial residual = 0.018171172, Final residual = 0.0016346795, No Iterations 26
time step continuity errors : sum local = 6.7444064e-06, global = 1.5263256e-06, cumulative = 2.1922027e-06
smoothSolver:  Solving for nuTilda, Initial residual = 0.025263176, Final residual = 0.0019168105, No Iterations 2
ExecutionTime = 7.71 s  ClockTime = 8 s

Time = 10

smoothSolver:  Solving for Ux, Initial residual = 0.011842646, Final residual = 0.00082945361, No Iterations 2
smoothSolver:  Solving for Uy, Initial residual = 0.017487046, Final residual = 0.00015187321, No Iterations 2
GAMG:  Solving for p, Initial residual = 0.028722723, Final residual = 0.002608714, No Iterations 31
time step continuity errors : sum local = 6.8790073e-06, global = -1.2822119e-06, cumulative = 9.0999084e-07
smoothSolver:  Solving for nuTilda, Initial residual = 0.022417664, Final residual = 0.0017197033, No Iterations 2
ExecutionTime = 8.27 s  ClockTime = 8 s

Time = 11

smoothSolver:  Solving for Ux, Initial residual = 0.010645045, Final residual = 0.00076021834, No Iterations 2
smoothSolver:  Solving for Uy, Initial residual = 0.0097109224, Final residual = 6.5063148e-05, No Iterations 2
GAMG:  Solving for p, Initial residual = 0.069405617, Final residual = 0.0067073449, No Iterations 21
time step continuity errors : sum local = 7.3488675e-06, global = 7.6376979e-07, cumulative = 1.6737606e-06
smoothSolver:  Solving for nuTilda, Initial residual = 0.020111682, Final residual = 0.0015557878, No Iterations 2
ExecutionTime = 8.7 s  ClockTime = 9 s

Time = 12

smoothSolver:  Solving for Ux, Initial residual = 0.0096750337, Final residual = 0.00070170021, No Iterations 2
smoothSolver:  Solving for Uy, Initial residual = 0.0066668939, Final residual = 4.6439862e-05, No Iterations 2
GAMG:  Solving for p, Initial residual = 0.079683123, Final residual = 0.0072866721, No Iterations 20
time step continuity errors : sum local = 6.9777335e-06, global = -9.7111609e-07, cumulative = 7.0264453e-07
smoothSolver:  Solving for nuTilda, Initial residual = 0.018146662, Final residual = 0.0014141052, No Iterations 2
ExecutionTime = 9.11 s  ClockTime = 9 s

Time = 13

smoothSolver:  Solving for Ux, Initial residual = 0.008871985, Final residual = 0.00065158515, No Iterations 2
smoothSolver:  Solving for Uy, Initial residual = 0.008877057, Final residual = 7.9236645e-05, No Iterations 2
GAMG:  Solving for p, Initial residual = 0.044169504, Final residual = 0.0043790892, No Iterations 22
time step continuity errors : sum local = 7.4687035e-06, global = -1.1473462e-06, cumulative = -4.4470168e-07
smoothSolver:  Solving for nuTilda, Initial residual = 0.016558405, Final residual = 0.0012972052, No Iterations 2
ExecutionTime = 9.55 s  ClockTime = 10 s

Time = 14

smoothSolver:  Solving for Ux, Initial residual = 0.0081943665, Final residual = 0.00060815992, No Iterations 2
smoothSolver:  Solving for Uy, Initial residual = 0.010392296, Final residual = 0.00010901894, No Iterations 2
GAMG:  Solving for p, Initial residual = 0.032357182, Final residual = 0.0029736068, No Iterations 18
time step continuity errors : sum local = 7.2393817e-06, global = -2.9904452e-07, cumulative = -7.4374621e-07
smoothSolver:  Solving for nuTilda, Initial residual = 0.015135826, Final residual = 0.0011917906, No Iterations 2
ExecutionTime = 9.94 s  ClockTime = 10 s

Time = 15

smoothSolver:  Solving for Ux, Initial residual = 0.0076137269, Final residual = 0.00057016957, No Iterations 2
smoothSolver:  Solving for Uy, Initial residual = 0.011052821, Final residual = 0.00010195075, No Iterations 2
GAMG:  Solving for p, Initial residual = 0.032378617, Final residual = 0.0031837253, No Iterations 17
time step continuity errors : sum local = 7.8464873e-06, global = 6.3682696e-07, cumulative = -1.0691925e-07
smoothSolver:  Solving for nuTilda, Initial residual = 0.013970785, Final residual = 0.0011041522, No Iterations 2
ExecutionTime = 10.32 s  ClockTime = 10 s

Time = 16

smoothSolver:  Solving for Ux, Initial residual = 0.0071104575, Final residual = 0.00053664859, No Iterations 2
smoothSolver:  Solving for Uy, Initial residual = 0.010638074, Final residual = 7.5611194e-05, No Iterations 2
GAMG:  Solving for p, Initial residual = 0.037190849, Final residual = 0.0036149517, No Iterations 20
time step continuity errors : sum local = 7.4507513e-06, global = -1.412124e-06, cumulative = -1.5190432e-06
smoothSolver:  Solving for nuTilda, Initial residual = 0.012901036, Final residual = 0.0010233489, No Iterations 2
ExecutionTime = 10.74 s  ClockTime = 11 s

Time = 17

smoothSolver:  Solving for Ux, Initial residual = 0.0066701173, Final residual = 0.00050683718, No Iterations 2
smoothSolver:  Solving for Uy, Initial residual = 0.0086802907, Final residual = 5.3744194e-05, No Iterations 2
GAMG:  Solving for p, Initial residual = 0.048426192, Final residual = 0.0046531077, No Iterations 18
time step continuity errors : sum local = 7.5084236e-06, global = -6.9875559e-07, cumulative = -2.2177988e-06
smoothSolver:  Solving for nuTilda, Initial residual = 0.01200972, Final residual = 0.00095527171, No Iterations 2
ExecutionTime = 11.13 s  ClockTime = 11 s

Time = 18

smoothSolver:  Solving for Ux, Initial residual = 0.0062819763, Final residual = 0.00048015964, No Iterations 2
smoothSolver:  Solving for Uy, Initial residual = 0.0068594499, Final residual = 5.01138e-05, No Iterations 2
GAMG:  Solving for p, Initial residual = 0.052112769, Final residual = 0.0046874226, No Iterations 18
time step continuity errors : sum local = 7.1078251e-06, global = -6.8607618e-07, cumulative = -2.903875e-06
smoothSolver:  Solving for nuTilda, Initial residual = 0.011180657, Final residual = 0.00089176993, No Iterations 2
ExecutionTime = 11.53 s  ClockTime = 12 s

Time = 19

smoothSolver:  Solving for Ux, Initial residual = 0.0059369544, Final residual = 0.0004561374, No Iterations 2
smoothSolver:  Solving for Uy, Initial residual = 0.0063082748, Final residual = 5.8423235e-05, No Iterations 2
GAMG:  Solving for p, Initial residual = 0.046383548, Final residual = 0.0039675026, No Iterations 16
time step continuity errors : sum local = 6.5698625e-06, global = -4.7983424e-07, cumulative = -3.3837092e-06
smoothSolver:  Solving for nuTilda, Initial residual = 0.010475451, Final residual = 0.00083730155, No Iterations 2
ExecutionTime = 11.9 s  ClockTime = 12 s

Time = 20

smoothSolver:  Solving for Ux, Initial residual = 0.0056279348, Final residual = 0.00043439398, No Iterations 2
smoothSolver:  Solving for Uy, Initial residual = 0.0066924397, Final residual = 6.3659422e-05, No Iterations 2
GAMG:  Solving for p, Initial residual = 0.042804593, Final residual = 0.0040334687, No Iterations 14
time step continuity errors : sum local = 7.2610742e-06, global = -1.4552565e-07, cumulative = -3.5292349e-06
smoothSolver:  Solving for nuTilda, Initial residual = 0.0098196522, Final residual = 0.00078653114, No Iterations 2
ExecutionTime = 12.24 s  ClockTime = 12 s

Time = 21

smoothSolver:  Solving for Ux, Initial residual = 0.0053492588, Final residual = 0.00041460885, No Iterations 2
smoothSolver:  Solving for Uy, Initial residual = 0.0067181906, Final residual = 5.8928598e-05, No Iterations 2
GAMG:  Solving for p, Initial residual = 0.042713059, Final residual = 0.0040894119, No Iterations 15
time step continuity errors : sum local = 7.4521924e-06, global = 4.4000671e-08, cumulative = -3.4852342e-06
smoothSolver:  Solving for nuTilda, Initial residual = 0.0092442725, Final residual = 0.00074171804, No Iterations 2
ExecutionTime = 12.6 s  ClockTime = 13 s

Time = 22

smoothSolver:  Solving for Ux, Initial residual = 0.0050967511, Final residual = 0.0003965332, No Iterations 2
smoothSolver:  Solving for Uy, Initial residual = 0.006983184, Final residual = 4.9393632e-05, No Iterations 2
GAMG:  Solving for p, Initial residual = 0.042282434, Final residual = 0.0041137182, No Iterations 14
time step continuity errors : sum local = 7.3280158e-06, global = -1.9431046e-07, cumulative = -3.6795447e-06
smoothSolver:  Solving for nuTilda, Initial residual = 0.0087188091, Final residual = 0.0007006848, No Iterations 2
ExecutionTime = 12.94 s  ClockTime = 13 s

Time = 23

smoothSolver:  Solving for Ux, Initial residual = 0.0048669141, Final residual = 0.00037995186, No Iterations 2
smoothSolver:  Solving for Uy, Initial residual = 0.0069553559, Final residual = 4.3281472e-05, No Iterations 2
GAMG:  Solving for p, Initial residual = 0.043205287, Final residual = 0.0040680949, No Iterations 13
time step continuity errors : sum local = 7.007424e-06, global = 8.4212864e-08, cumulative = -3.5953318e-06
smoothSolver:  Solving for nuTilda, Initial residual = 0.0082370328, Final residual = 0.00066292422, No Iterations 2
ExecutionTime = 13.26 s  ClockTime = 13 s

Time = 24

smoothSolver:  Solving for Ux, Initial residual = 0.0046569414, Final residual = 0.00036469042, No Iterations 2
smoothSolver:  Solving for Uy, Initial residual = 0.0065167791, Final residual = 4.2466358e-05, No Iterations 2
GAMG:  Solving for p, Initial residual = 0.043154375, Final residual = 0.0041397103, No Iterations 13
time step continuity errors : sum local = 7.0758318e-06, global = 1.3648454e-07, cumulative = -3.4588473e-06
smoothSolver:  Solving for nuTilda, Initial residual = 0.0078099066, Final residual = 0.00062933213, No Iterations 2
ExecutionTime = 13.59 s  ClockTime = 14 s

Time = 25

smoothSolver:  Solving for Ux, Initial residual = 0.0044642004, Final residual = 0.00035058745, No Iterations 2
smoothSolver:  Solving for Uy, Initial residual = 0.0058889826, Final residual = 4.3440252e-05, No Iterations 2
GAMG:  Solving for p, Initial residual = 0.04257131, Final residual = 0.0042201326, No Iterations 13
time step continuity errors : sum local = 7.1962737e-06, global = 1.207231e-07, cumulative = -3.3381242e-06
smoothSolver:  Solving for nuTilda, Initial residual = 0.0074012959, Final residual = 0.00059714259, No Iterations 2
ExecutionTime = 13.92 s  ClockTime = 14 s

Time = 26

smoothSolver:  Solving for Ux, Initial residual = 0.0042866224, Final residual = 0.00033751768, No Iterations 2
smoothSolver:  Solving for Uy, Initial residual = 0.0053850546, Final residual = 4.3397657e-05, No Iterations 2
GAMG:  Solving for p, Initial residual = 0.042460173, Final residual = 0.0040745846, No Iterations 13
time step continuity errors : sum local = 6.867582e-06, global = -1.1810368e-07, cumulative = -3.4562278e-06
smoothSolver:  Solving for nuTilda, Initial residual = 0.0070444245, Final residual = 0.00056892024, No Iterations 2
ExecutionTime = 14.25 s  ClockTime = 14 s

Time = 27

smoothSolver:  Solving for Ux, Initial residual = 0.0041225166, Final residual = 0.00032537889, No Iterations 2
smoothSolver:  Solving for Uy, Initial residual = 0.0051313964, Final residual = 4.0876667e-05, No Iterations 2
GAMG:  Solving for p, Initial residual = 0.043224214, Final residual = 0.0039068378, No Iterations 13
time step continuity errors : sum local = 6.4097786e-06, global = 1.5482295e-08, cumulative = -3.4407456e-06
smoothSolver:  Solving for nuTilda, Initial residual = 0.0066999727, Final residual = 0.00054165839, No Iterations 2
ExecutionTime = 14.58 s  ClockTime = 15 s

Time = 28

smoothSolver:  Solving for Ux, Initial residual = 0.0039702854, Final residual = 0.00031406456, No Iterations 2
smoothSolver:  Solving for Uy, Initial residual = 0.0051021193, Final residual = 3.7067633e-05, No Iterations 2
GAMG:  Solving for p, Initial residual = 0.043931086, Final residual = 0.00436159, No Iterations 12
time step continuity errors : sum local = 6.9619412e-06, global = -5.3182543e-10, cumulative = -3.4412774e-06
smoothSolver:  Solving for nuTilda, Initial residual = 0.0063904503, Final residual = 0.00051708343, No Iterations 2
ExecutionTime = 14.9 s  ClockTime = 15 s

Time = 29

smoothSolver:  Solving for Ux, Initial residual = 0.0038287204, Final residual = 0.00030349463, No Iterations 2
smoothSolver:  Solving for Uy, Initial residual = 0.0051198204, Final residual = 3.4475185e-05, No Iterations 2
GAMG:  Solving for p, Initial residual = 0.043953777, Final residual = 0.0040927291, No Iterations 11
time step continuity errors : sum local = 6.4434975e-06, global = -3.1543401e-08, cumulative = -3.4728208e-06
smoothSolver:  Solving for nuTilda, Initial residual = 0.0061033573, Final residual = 0.00049425824, No Iterations 2
ExecutionTime = 15.2 s  ClockTime = 15 s

Time = 30

smoothSolver:  Solving for Ux, Initial residual = 0.0036968151, Final residual = 0.00029360313, No Iterations 2
smoothSolver:  Solving for Uy, Initial residual = 0.0050656837, Final residual = 3.416305e-05, No Iterations 2
GAMG:  Solving for p, Initial residual = 0.042888822, Final residual = 0.0040719545, No Iterations 11
time step continuity errors : sum local = 6.4126793e-06, global = -2.1142799e-08, cumulative = -3.4939636e-06
smoothSolver:  Solving for nuTilda, Initial residual = 0.0058297234, Final residual = 0.00047246896, No Iterations 2
ExecutionTime = 15.51 s  ClockTime = 16 s

Time = 31

smoothSolver:  Solving for Ux, Initial residual = 0.0035735749, Final residual = 0.00028432307, No Iterations 2
smoothSolver:  Solving for Uy, Initial residual = 0.0049528284, Final residual = 3.3934811e-05, No Iterations 2
GAMG:  Solving for p, Initial residual = 0.041780421, Final residual = 0.0040720011, No Iterations 11
time step continuity errors : sum local = 6.5198089e-06, global = -1.4873194e-08, cumulative = -3.5088368e-06
smoothSolver:  Solving for nuTilda, Initial residual = 0.0055856193, Final residual = 0.00045298634, No Iterations 2
ExecutionTime = 15.81 s  ClockTime = 16 s

Time = 32

smoothSolver:  Solving for Ux, Initial residual = 0.0034581323, Final residual = 0.00027559721, No Iterations 2
smoothSolver:  Solving for Uy, Initial residual = 0.0048185548, Final residual = 3.2754104e-05, No Iterations 2
GAMG:  Solving for p, Initial residual = 0.040531485, Final residual = 0.0039432074, No Iterations 11
time step continuity errors : sum local = 6.4264163e-06, global = -2.8943072e-08, cumulative = -3.5377798e-06
smoothSolver:  Solving for nuTilda, Initial residual = 0.0053476156, Final residual = 0.0004339809, No Iterations 2
ExecutionTime = 16.11 s  ClockTime = 16 s

Time = 33

smoothSolver:  Solving for Ux, Initial residual = 0.0033497548, Final residual = 0.00026737791, No Iterations 2
smoothSolver:  Solving for Uy, Initial residual = 0.0046889224, Final residual = 3.1131317e-05, No Iterations 2
GAMG:  Solving for p, Initial residual = 0.039713103, Final residual = 0.0038097266, No Iterations 11
time step continuity errors : sum local = 6.2287914e-06, global = 4.8559826e-08, cumulative = -3.48922e-06
smoothSolver:  Solving for nuTilda, Initial residual = 0.0051306093, Final residual = 0.00041661487, No Iterations 2
ExecutionTime = 16.42 s  ClockTime = 16 s

Time = 34

smoothSolver:  Solving for Ux, Initial residual = 0.0032478877, Final residual = 0.00025962828, No Iterations 2
smoothSolver:  Solving for Uy, Initial residual = 0.0045706574, Final residual = 2.9643695e-05, No Iterations 2
GAMG:  Solving for p, Initial residual = 0.039442844, Final residual = 0.0037995541, No Iterations 11
time step continuity errors : sum local = 6.1684865e-06, global = 6.4952075e-08, cumulative = -3.4242679e-06
smoothSolver:  Solving for nuTilda, Initial residual = 0.0049282219, Final residual = 0.00040040302, No Iterations 2
ExecutionTime = 16.73 s  ClockTime = 17 s

Time = 35

smoothSolver:  Solving for Ux, Initial residual = 0.0031518586, Final residual = 0.00025230171, No Iterations 2
smoothSolver:  Solving for Uy, Initial residual = 0.0044370086, Final residual = 2.8492473e-05, No Iterations 2
GAMG:  Solving for p, Initial residual = 0.039638326, Final residual = 0.0034123087, No Iterations 13
time step continuity errors : sum local = 5.4295071e-06, global = 2.1019398e-08, cumulative = -3.4032485e-06
smoothSolver:  Solving for nuTilda, Initial residual = 0.0047321491, Final residual = 0.00038468228, No Iterations 2
ExecutionTime = 17.07 s  ClockTime = 17 s

Time = 36

smoothSolver:  Solving for Ux, Initial residual = 0.0030611401, Final residual = 0.00024536167, No Iterations 2
smoothSolver:  Solving for Uy, Initial residual = 0.0042892794, Final residual = 2.766264e-05, No Iterations 2
GAMG:  Solving for p, Initial residual = 0.039954349, Final residual = 0.0036719175, No Iterations 11
time step continuity errors : sum local = 5.6645842e-06, global = 2.9730967e-08, cumulative = -3.3735176e-06
smoothSolver:  Solving for nuTilda, Initial residual = 0.0045552455, Final residual = 0.00037047408, No Iterations 2
ExecutionTime = 17.37 s  ClockTime = 17 s

Time = 37

smoothSolver:  Solving for Ux, Initial residual = 0.0029754436, Final residual = 0.00023878837, No Iterations 2
smoothSolver:  Solving for Uy, Initial residual = 0.0041599703, Final residual = 2.711444e-05, No Iterations 2
GAMG:  Solving for p, Initial residual = 0.039881184, Final residual = 0.0036329545, No Iterations 11
time step continuity errors : sum local = 5.5054496e-06, global = 1.0106667e-10, cumulative = -3.3734165e-06
smoothSolver:  Solving for nuTilda, Initial residual = 0.0043837936, Final residual = 0.00035669847, No Iterations 2
ExecutionTime = 17.68 s  ClockTime = 18 s

Time = 38

smoothSolver:  Solving for Ux, Initial residual = 0.0028943044, Final residual = 0.00023254821, No Iterations 2
smoothSolver:  Solving for Uy, Initial residual = 0.0040404454, Final residual = 2.6326868e-05, No Iterations 2
GAMG:  Solving for p, Initial residual = 0.039315069, Final residual = 0.0035063014, No Iterations 11
time step continuity errors : sum local = 5.2899873e-06, global = -3.4995606e-08, cumulative = -3.4084121e-06
smoothSolver:  Solving for nuTilda, Initial residual = 0.0042220802, Final residual = 0.00034368822, No Iterations 2
ExecutionTime = 17.99 s  ClockTime = 18 s

Time = 39

smoothSolver:  Solving for Ux, Initial residual = 0.0028173414, Final residual = 0.00022661457, No Iterations 2
smoothSolver:  Solving for Uy, Initial residual = 0.0039494913, Final residual = 2.5409156e-05, No Iterations 2
GAMG:  Solving for p, Initial residual = 0.038487129, Final residual = 0.0036172419, No Iterations 11
time step continuity errors : sum local = 5.4744099e-06, global = -4.179024e-08, cumulative = -3.4502024e-06
smoothSolver:  Solving for nuTilda, Initial residual = 0.0040735526, Final residual = 0.00033172623, No Iterations 2
ExecutionTime = 18.29 s  ClockTime = 18 s

Time = 40

smoothSolver:  Solving for Ux, Initial residual = 0.0027442358, Final residual = 0.00022096529, No Iterations 2
smoothSolver:  Solving for Uy, Initial residual = 0.0038951527, Final residual = 2.4504304e-05, No Iterations 2
GAMG:  Solving for p, Initial residual = 0.037679857, Final residual = 0.0036547446, No Iterations 11
time step continuity errors : sum local = 5.5635508e-06, global = -2.2493784e-08, cumulative = -3.4726961e-06
smoothSolver:  Solving for nuTilda, Initial residual = 0.0039275881, Final residual = 0.00031996617, No Iterations 2
ExecutionTime = 18.6 s  ClockTime = 19 s

Time = 41

smoothSolver:  Solving for Ux, Initial residual = 0.0026747824, Final residual = 0.00021558671, No Iterations 2
smoothSolver:  Solving for Uy, Initial residual = 0.0038665201, Final residual = 2.3671453e-05, No Iterations 2
GAMG:  Solving for p, Initial residual = 0.036880934, Final residual = 0.0032005686, No Iterations 13
time step continuity errors : sum local = 4.9008592e-06, global = -1.724959e-09, cumulative = -3.4744211e-06
smoothSolver:  Solving for nuTilda, Initial residual = 0.0037924631, Final residual = 0.00030906519, No Iterations 2
ExecutionTime = 18.93 s  ClockTime = 19 s

Time = 42

smoothSolver:  Solving for Ux, Initial residual = 0.0026086339, Final residual = 0.00021045371, No Iterations 2
smoothSolver:  Solving for Uy, Initial residual = 0.0038331099, Final residual = 2.3036657e-05, No Iterations 2
GAMG:  Solving for p, Initial residual = 0.036000486, Final residual = 0.0030530317, No Iterations 13
time step continuity errors : sum local = 4.6783868e-06, global = -1.6702734e-09, cumulative = -3.4760914e-06
smoothSolver:  Solving for nuTilda, Initial residual = 0.0036653123, Final residual = 0.00029880154, No Iterations 2
ExecutionTime = 19.27 s  ClockTime = 19 s

Time = 43

smoothSolver:  Solving for Ux, Initial residual = 0.002545554, Final residual = 0.00020554958, No Iterations 2
smoothSolver:  Solving for Uy, Initial residual = 0.0037722361, Final residual = 2.2532271e-05, No Iterations 2
GAMG:  Solving for p, Initial residual = 0.035369783, Final residual = 0.0034602077, No Iterations 12
time step continuity errors : sum local = 5.2831697e-06, global = 3.2780207e-08, cumulative = -3.4433112e-06
smoothSolver:  Solving for nuTilda, Initial residual = 0.0035406458, Final residual = 0.0002887329, No Iterations 2
ExecutionTime = 19.58 s  ClockTime = 20 s

Time = 44

smoothSolver:  Solving for Ux, Initial residual = 0.0024853474, Final residual = 0.0002008606, No Iterations 2
smoothSolver:  Solving for Uy, Initial residual = 0.0036776998, Final residual = 2.1889804e-05, No Iterations 2
GAMG:  Solving for p, Initial residual = 0.035138274, Final residual = 0.0033810642, No Iterations 12
time step continuity errors : sum local = 5.1278618e-06, global = 5.2126643e-08, cumulative = -3.3911845e-06
smoothSolver:  Solving for nuTilda, Initial residual = 0.0034258214, Final residual = 0.00027944891, No Iterations 2
ExecutionTime = 19.9 s  ClockTime = 20 s

Time = 45

smoothSolver:  Solving for Ux, Initial residual = 0.0024278731, Final residual = 0.00019637687, No Iterations 2
smoothSolver:  Solving for Uy, Initial residual = 0.0035690766, Final residual = 2.117868e-05, No Iterations 2
GAMG:  Solving for p, Initial residual = 0.034905254, Final residual = 0.0033209283, No Iterations 12
time step continuity errors : sum local = 5.0004991e-06, global = 4.0936569e-08, cumulative = -3.350248e-06
smoothSolver:  Solving for nuTilda, Initial residual = 0.0033158233, Final residual = 0.00027055215, No Iterations 2
ExecutionTime = 20.22 s  ClockTime = 20 s

Time = 46

smoothSolver:  Solving for Ux, Initial residual = 0.0023728893, Final residual = 0.00019208055, No Iterations 2
smoothSolver:  Solving for Uy, Initial residual = 0.0034732114, Final residual = 2.0665263e-05, No Iterations 2
GAMG:  Solving for p, Initial residual = 0.034721718, Final residual = 0.0032689525, No Iterations 12
time step continuity errors : sum local = 4.8725882e-06, global = 2.1088275e-08, cumulative = -3.3291597e-06
smoothSolver:  Solving for nuTilda, Initial residual = 0.0032087093, Final residual = 0.00026188291, No Iterations 2
ExecutionTime = 20.54 s  ClockTime = 21 s

Time = 47

smoothSolver:  Solving for Ux, Initial residual = 0.0023202351, Final residual = 0.00018795969, No Iterations 2
smoothSolver:  Solving for Uy, Initial residual = 0.0033965692, Final residual = 2.0195312e-05, No Iterations 2
GAMG:  Solving for p, Initial residual = 0.034545156, Final residual = 0.0032133643, No Iterations 12
time step continuity errors : sum local = 4.7403351e-06, global = 1.7759667e-08, cumulative = -3.3114e-06
smoothSolver:  Solving for nuTilda, Initial residual = 0.0031097773, Final residual = 0.00025386887, No Iterations 2
ExecutionTime = 20.86 s  ClockTime = 21 s

Time = 48

smoothSolver:  Solving for Ux, Initial residual = 0.0022697762, Final residual = 0.00018400451, No Iterations 2
smoothSolver:  Solving for Uy, Initial residual = 0.0033366045, Final residual = 1.9721287e-05, No Iterations 2
GAMG:  Solving for p, Initial residual = 0.034262357, Final residual = 0.0031501502, No Iterations 12
time step continuity errors : sum local = 4.6093948e-06, global = -9.1442316e-09, cumulative = -3.3205442e-06
smoothSolver:  Solving for nuTilda, Initial residual = 0.0030139073, Final residual = 0.00024610102, No Iterations 2
ExecutionTime = 21.19 s  ClockTime = 21 s

Time = 49

smoothSolver:  Solving for Ux, Initial residual = 0.002221422, Final residual = 0.00018020869, No Iterations 2
smoothSolver:  Solving for Uy, Initial residual = 0.0032839838, Final residual = 1.9227325e-05, No Iterations 2
GAMG:  Solving for p, Initial residual = 0.033810109, Final residual = 0.0030691789, No Iterations 12
time step continuity errors : sum local = 4.4696623e-06, global = -3.8273314e-08, cumulative = -3.3588176e-06
smoothSolver:  Solving for nuTilda, Initial residual = 0.002921121, Final residual = 0.00023857784, No Iterations 2
ExecutionTime = 21.5 s  ClockTime = 22 s

Time = 50

smoothSolver:  Solving for Ux, Initial residual = 0.0021750109, Final residual = 0.00017656037, No Iterations 2
smoothSolver:  Solving for Uy, Initial residual = 0.0032343778, Final residual = 1.8750394e-05, No Iterations 2
GAMG:  Solving for p, Initial residual = 0.033300603, Final residual = 0.0030073177, No Iterations 12
time step continuity errors : sum local = 4.3621693e-06, global = -2.6499895e-08, cumulative = -3.3853175e-06
smoothSolver:  Solving for nuTilda, Initial residual = 0.0028349333, Final residual = 0.00023158487, No Iterations 2
ExecutionTime = 21.82 s  ClockTime = 22 s

Time = 51

smoothSolver:  Solving for Ux, Initial residual = 0.0021304148, Final residual = 0.0001730495, No Iterations 2
smoothSolver:  Solving for Uy, Initial residual = 0.0031910405, Final residual = 1.8303609e-05, No Iterations 2
GAMG:  Solving for p, Initial residual = 0.032558767, Final residual = 0.0028734621, No Iterations 12
time step continuity errors : sum local = 4.1766025e-06, global = -7.0590518e-09, cumulative = -3.3923765e-06
smoothSolver:  Solving for nuTilda, Initial residual = 0.002750901, Final residual = 0.00022476541, No Iterations 2
ExecutionTime = 22.14 s  ClockTime = 22 s

Time = 52

smoothSolver:  Solving for Ux, Initial residual = 0.0020875185, Final residual = 0.00016966774, No Iterations 2
smoothSolver:  Solving for Uy, Initial residual = 0.003149, Final residual = 1.7869434e-05, No Iterations 2
GAMG:  Solving for p, Initial residual = 0.031723386, Final residual = 0.0027261974, No Iterations 12
time step continuity errors : sum local = 3.9838797e-06, global = 1.2473485e-08, cumulative = -3.379903e-06
smoothSolver:  Solving for nuTilda, Initial residual = 0.0026697543, Final residual = 0.00021817575, No Iterations 2
ExecutionTime = 22.46 s  ClockTime = 23 s

Time = 53

smoothSolver:  Solving for Ux, Initial residual = 0.0020462723, Final residual = 0.00016641223, No Iterations 2
smoothSolver:  Solving for Uy, Initial residual = 0.0031069007, Final residual = 1.7489536e-05, No Iterations 2
GAMG:  Solving for p, Initial residual = 0.030945602, Final residual = 0.0026123033, No Iterations 12
time step continuity errors : sum local = 3.8320382e-06, global = 2.4810144e-08, cumulative = -3.3550929e-06
smoothSolver:  Solving for nuTilda, Initial residual = 0.002594081, Final residual = 0.00021202723, No Iterations 2
ExecutionTime = 22.78 s  ClockTime = 23 s

Time = 54

smoothSolver:  Solving for Ux, Initial residual = 0.0020065798, Final residual = 0.00016327608, No Iterations 2
smoothSolver:  Solving for Uy, Initial residual = 0.0030617021, Final residual = 1.7169507e-05, No Iterations 2
GAMG:  Solving for p, Initial residual = 0.030391305, Final residual = 0.0026141713, No Iterations 12
time step continuity errors : sum local = 3.8294113e-06, global = 3.8576928e-08, cumulative = -3.3165159e-06
smoothSolver:  Solving for nuTilda, Initial residual = 0.0025200486, Final residual = 0.0002060109, No Iterations 2
ExecutionTime = 23.1 s  ClockTime = 23 s

Time = 55

smoothSolver:  Solving for Ux, Initial residual = 0.0019683023, Final residual = 0.00016024847, No Iterations 2
smoothSolver:  Solving for Uy, Initial residual = 0.0030125382, Final residual = 1.6836622e-05, No Iterations 2
GAMG:  Solving for p, Initial residual = 0.029978845, Final residual = 0.0026319976, No Iterations 12
time step continuity errors : sum local = 3.836056e-06, global = 2.9233544e-08, cumulative = -3.2872824e-06
smoothSolver:  Solving for nuTilda, Initial residual = 0.0024484936, Final residual = 0.00020019235, No Iterations 2
ExecutionTime = 23.41 s  ClockTime = 23 s

Time = 56

smoothSolver:  Solving for Ux, Initial residual = 0.0019313738, Final residual = 0.00015732478, No Iterations 2
smoothSolver:  Solving for Uy, Initial residual = 0.002955692, Final residual = 1.6475803e-05, No Iterations 2
GAMG:  Solving for p, Initial residual = 0.029690757, Final residual = 0.0025952181, No Iterations 12
time step continuity errors : sum local = 3.7411356e-06, global = 1.6961888e-08, cumulative = -3.2703205e-06
smoothSolver:  Solving for nuTilda, Initial residual = 0.002381569, Final residual = 0.00019474789, No Iterations 2
ExecutionTime = 23.74 s  ClockTime = 24 s

Time = 57

smoothSolver:  Solving for Ux, Initial residual = 0.001895751, Final residual = 0.00015450154, No Iterations 2
smoothSolver:  Solving for Uy, Initial residual = 0.0028969256, Final residual = 1.6141807e-05, No Iterations 2
GAMG:  Solving for p, Initial residual = 0.029362352, Final residual = 0.0024945828, No Iterations 12
time step continuity errors : sum local = 3.5555802e-06, global = 1.0429151e-08, cumulative = -3.2598914e-06
smoothSolver:  Solving for nuTilda, Initial residual = 0.0023160346, Final residual = 0.00018941561, No Iterations 2
ExecutionTime = 24.06 s  ClockTime = 24 s

Time = 58

smoothSolver:  Solving for Ux, Initial residual = 0.0018613847, Final residual = 0.00015177486, No Iterations 2
smoothSolver:  Solving for Uy, Initial residual = 0.0028439875, Final residual = 1.584832e-05, No Iterations 2
GAMG:  Solving for p, Initial residual = 0.028924186, Final residual = 0.0023888522, No Iterations 12
time step continuity errors : sum local = 3.3798246e-06, global = -8.7081738e-09, cumulative = -3.2685995e-06
smoothSolver:  Solving for nuTilda, Initial residual = 0.0022524781, Final residual = 0.0001842414, No Iterations 2
ExecutionTime = 24.38 s  ClockTime = 24 s

Time = 59

smoothSolver:  Solving for Ux, Initial residual = 0.0018281938, Final residual = 0.00014913872, No Iterations 2
smoothSolver:  Solving for Uy, Initial residual = 0.0027966552, Final residual = 1.551627e-05, No Iterations 2
GAMG:  Solving for p, Initial residual = 0.028445488, Final residual = 0.0023535685, No Iterations 12
time step continuity errors : sum local = 3.3154128e-06, global = -1.6239876e-08, cumulative = -3.2848394e-06
smoothSolver:  Solving for nuTilda, Initial residual = 0.0021929019, Final residual = 0.00017938937, No Iterations 2
ExecutionTime = 24.71 s  ClockTime = 25 s

Time = 60

smoothSolver:  Solving for Ux, Initial residual = 0.0017961018, Final residual = 0.00014658716, No Iterations 2
smoothSolver:  Solving for Uy, Initial residual = 0.0027579174, Final residual = 1.5185959e-05, No Iterations 2
GAMG:  Solving for p, Initial residual = 0.027866882, Final residual = 0.0023119859, No Iterations 12
time step continuity errors : sum local = 3.2559401e-06, global = -8.1733803e-09, cumulative = -3.2930128e-06
smoothSolver:  Solving for nuTilda, Initial residual = 0.0021346336, Final residual = 0.00017464314, No Iterations 2
ExecutionTime = 25.02 s  ClockTime = 25 s

Time = 61

smoothSolver:  Solving for Ux, Initial residual = 0.0017650451, Final residual = 0.00014411522, No Iterations 2
smoothSolver:  Solving for Uy, Initial residual = 0.0027304162, Final residual = 1.4925023e-05, No Iterations 2
GAMG:  Solving for p, Initial residual = 0.027171233, Final residual = 0.0022477979, No Iterations 12
time step continuity errors : sum local = 3.1813033e-06, global = -9.2588979e-10, cumulative = -3.2939387e-06
smoothSolver:  Solving for nuTilda, Initial residual = 0.0020778275, Final residual = 0.00017001371, No Iterations 2
ExecutionTime = 25.35 s  ClockTime = 25 s

Time = 62

smoothSolver:  Solving for Ux, Initial residual = 0.001735009, Final residual = 0.00014172251, No Iterations 2
smoothSolver:  Solving for Uy, Initial residual = 0.0027076236, Final residual = 1.472147e-05, No Iterations 2
GAMG:  Solving for p, Initial residual = 0.02654393, Final residual = 0.0021864185, No Iterations 12
time step continuity errors : sum local = 3.10815e-06, global = -1.8494909e-09, cumulative = -3.2957882e-06
smoothSolver:  Solving for nuTilda, Initial residual = 0.0020244657, Final residual = 0.00016566347, No Iterations 2
ExecutionTime = 25.66 s  ClockTime = 26 s

Time = 63

smoothSolver:  Solving for Ux, Initial residual = 0.0017059404, Final residual = 0.00013940532, No Iterations 2
smoothSolver:  Solving for Uy, Initial residual = 0.0026793558, Final residual = 1.4476177e-05, No Iterations 2
GAMG:  Solving for p, Initial residual = 0.026029711, Final residual = 0.0021352402, No Iterations 12
time step continuity errors : sum local = 3.0330999e-06, global = 1.0607902e-08, cumulative = -3.2851803e-06
smoothSolver:  Solving for nuTilda, Initial residual = 0.0019724464, Final residual = 0.00016142212, No Iterations 2
ExecutionTime = 25.99 s  ClockTime = 26 s

Time = 64

smoothSolver:  Solving for Ux, Initial residual = 0.0016777799, Final residual = 0.00013715882, No Iterations 2
smoothSolver:  Solving for Uy, Initial residual = 0.0026431625, Final residual = 1.4192609e-05, No Iterations 2
GAMG:  Solving for p, Initial residual = 0.025581806, Final residual = 0.0021186322, No Iterations 12
time step continuity errors : sum local = 2.9992651e-06, global = 1.8788687e-08, cumulative = -3.2663916e-06
smoothSolver:  Solving for nuTilda, Initial residual = 0.0019214137, Final residual = 0.00015725939, No Iterations 2
ExecutionTime = 26.3 s  ClockTime = 26 s

Time = 65

smoothSolver:  Solving for Ux, Initial residual = 0.0016504754, Final residual = 0.00013497891, No Iterations 2
smoothSolver:  Solving for Uy, Initial residual = 0.0026009617, Final residual = 1.3954369e-05, No Iterations 2
GAMG:  Solving for p, Initial residual = 0.02519142, Final residual = 0.0021113391, No Iterations 12
time step continuity errors : sum local = 2.9738377e-06, global = 2.0783259e-08, cumulative = -3.2456083e-06
smoothSolver:  Solving for nuTilda, Initial residual = 0.001873331, Final residual = 0.00015333598, No Iterations 2
ExecutionTime = 26.63 s  ClockTime = 27 s

Time = 66

smoothSolver:  Solving for Ux, Initial residual = 0.0016239835, Final residual = 0.0001328622, No Iterations 2
smoothSolver:  Solving for Uy, Initial residual = 0.0025582311, Final residual = 1.3741463e-05, No Iterations 2
GAMG:  Solving for p, Initial residual = 0.024826962, Final residual = 0.0021105192, No Iterations 12
time step continuity errors : sum local = 2.9556998e-06, global = 1.8983355e-08, cumulative = -3.226625e-06
smoothSolver:  Solving for nuTilda, Initial residual = 0.0018267057, Final residual = 0.00014953108, No Iterations 2
ExecutionTime = 26.95 s  ClockTime = 27 s

Time = 67

smoothSolver:  Solving for Ux, Initial residual = 0.0015982984, Final residual = 0.00013080842, No Iterations 2
smoothSolver:  Solving for Uy, Initial residual = 0.0025208529, Final residual = 1.350969e-05, No Iterations 2
GAMG:  Solving for p, Initial residual = 0.024431699, Final residual = 0.002076085, No Iterations 12
time step continuity errors : sum local = 2.892269e-06, global = 1.1929519e-08, cumulative = -3.2146955e-06
smoothSolver:  Solving for nuTilda, Initial residual = 0.0017806835, Final residual = 0.00014577398, No Iterations 2
ExecutionTime = 27.27 s  ClockTime = 27 s

Time = 68

smoothSolver:  Solving for Ux, Initial residual = 0.0015733846, Final residual = 0.00012881483, No Iterations 2
smoothSolver:  Solving for Uy, Initial residual = 0.0024894327, Final residual = 1.3265193e-05, No Iterations 2
GAMG:  Solving for p, Initial residual = 0.024030379, Final residual = 0.0020265545, No Iterations 12
time step continuity errors : sum local = 2.8117059e-06, global = 1.5285068e-09, cumulative = -3.2131669e-06
smoothSolver:  Solving for nuTilda, Initial residual = 0.0017371053, Final residual = 0.00014221522, No Iterations 2
ExecutionTime = 27.59 s  ClockTime = 28 s

Time = 69

smoothSolver:  Solving for Ux, Initial residual = 0.0015491979, Final residual = 0.00012687799, No Iterations 2
smoothSolver:  Solving for Uy, Initial residual = 0.0024619897, Final residual = 1.3061074e-05, No Iterations 2
GAMG:  Solving for p, Initial residual = 0.023608385, Final residual = 0.0019848703, No Iterations 12
time step continuity errors : sum local = 2.7467278e-06, global = -9.336355e-09, cumulative = -3.2225033e-06
smoothSolver:  Solving for nuTilda, Initial residual = 0.0016951353, Final residual = 0.00013878746, No Iterations 2
ExecutionTime = 27.9 s  ClockTime = 28 s

Time = 70

smoothSolver:  Solving for Ux, Initial residual = 0.0015256948, Final residual = 0.00012499449, No Iterations 2
smoothSolver:  Solving for Uy, Initial residual = 0.0024352246, Final residual = 1.28847e-05, No Iterations 2
GAMG:  Solving for p, Initial residual = 0.023161515, Final residual = 0.0019805467, No Iterations 12
time step continuity errors : sum local = 2.737765e-06, global = -8.9877454e-09, cumulative = -3.231491e-06
smoothSolver:  Solving for nuTilda, Initial residual = 0.0016535272, Final residual = 0.00013538822, No Iterations 2
ExecutionTime = 28.23 s  ClockTime = 28 s

Time = 71

smoothSolver:  Solving for Ux, Initial residual = 0.0015028395, Final residual = 0.00012316155, No Iterations 2
smoothSolver:  Solving for Uy, Initial residual = 0.0024074243, Final residual = 1.2701607e-05, No Iterations 2
GAMG:  Solving for p, Initial residual = 0.022676273, Final residual = 0.0019652453, No Iterations 12
time step continuity errors : sum local = 2.7179782e-06, global = -7.6009571e-09, cumulative = -3.239092e-06
smoothSolver:  Solving for nuTilda, Initial residual = 0.0016138205, Final residual = 0.00013214321, No Iterations 2
ExecutionTime = 28.55 s  ClockTime = 29 s

Time = 72

smoothSolver:  Solving for Ux, Initial residual = 0.0014806313, Final residual = 0.00012137941, No Iterations 2
smoothSolver:  Solving for Uy, Initial residual = 0.0023781511, Final residual = 1.2498703e-05, No Iterations 2
GAMG:  Solving for p, Initial residual = 0.022202733, Final residual = 0.0019241042, No Iterations 12
time step continuity errors : sum local = 2.6623543e-06, global = -3.4442088e-09, cumulative = -3.2425362e-06
smoothSolver:  Solving for nuTilda, Initial residual = 0.0015758496, Final residual = 0.00012903978, No Iterations 2
ExecutionTime = 28.87 s  ClockTime = 29 s

Time = 73

smoothSolver:  Solving for Ux, Initial residual = 0.0014590429, Final residual = 0.00011964602, No Iterations 2
smoothSolver:  Solving for Uy, Initial residual = 0.0023490757, Final residual = 1.2298721e-05, No Iterations 2
GAMG:  Solving for p, Initial residual = 0.021754185, Final residual = 0.0018825057, No Iterations 12
time step continuity errors : sum local = 2.6034778e-06, global = -3.2393919e-11, cumulative = -3.2425686e-06
smoothSolver:  Solving for nuTilda, Initial residual = 0.0015381793, Final residual = 0.00012596017, No Iterations 2
ExecutionTime = 29.19 s  ClockTime = 29 s

Time = 74

smoothSolver:  Solving for Ux, Initial residual = 0.0014380483, Final residual = 0.00011795937, No Iterations 2
smoothSolver:  Solving for Uy, Initial residual = 0.0023224849, Final residual = 1.2126056e-05, No Iterations 2
GAMG:  Solving for p, Initial residual = 0.02134671, Final residual = 0.0018669494, No Iterations 12
time step continuity errors : sum local = 2.5781214e-06, global = 3.8190437e-11, cumulative = -3.2425304e-06
smoothSolver:  Solving for nuTilda, Initial residual = 0.001501844, Final residual = 0.00012298869, No Iterations 2
ExecutionTime = 29.5 s  ClockTime = 30 s

Time = 75

smoothSolver:  Solving for Ux, Initial residual = 0.0014175998, Final residual = 0.00011631561, No Iterations 2
smoothSolver:  Solving for Uy, Initial residual = 0.0022985169, Final residual = 1.1968165e-05, No Iterations 2
GAMG:  Solving for p, Initial residual = 0.020979971, Final residual = 0.0018879015, No Iterations 12
time step continuity errors : sum local = 2.6016266e-06, global = 7.5903457e-11, cumulative = -3.2424545e-06
smoothSolver:  Solving for nuTilda, Initial residual = 0.0014672843, Final residual = 0.00012016213, No Iterations 2
ExecutionTime = 29.83 s  ClockTime = 30 s

Time = 76

smoothSolver:  Solving for Ux, Initial residual = 0.0013976816, Final residual = 0.00011471352, No Iterations 2
smoothSolver:  Solving for Uy, Initial residual = 0.0022754386, Final residual = 1.1789662e-05, No Iterations 2
GAMG:  Solving for p, Initial residual = 0.020645335, Final residual = 0.0018977121, No Iterations 12
time step continuity errors : sum local = 2.6092768e-06, global = -2.9671199e-09, cumulative = -3.2454216e-06
smoothSolver:  Solving for nuTilda, Initial residual = 0.0014331441, Final residual = 0.0001173694, No Iterations 2
ExecutionTime = 30.15 s  ClockTime = 30 s

Time = 77

smoothSolver:  Solving for Ux, Initial residual = 0.001378285, Final residual = 0.00011315247, No Iterations 2
smoothSolver:  Solving for Uy, Initial residual = 0.0022516099, Final residual = 1.1602824e-05, No Iterations 2
GAMG:  Solving for p, Initial residual = 0.020283447, Final residual = 0.0018706907, No Iterations 12
time step continuity errors : sum local = 2.5658668e-06, global = -6.2117593e-09, cumulative = -3.2516334e-06
smoothSolver:  Solving for nuTilda, Initial residual = 0.0013998056, Final residual = 0.00011464134, No Iterations 2
ExecutionTime = 30.47 s  ClockTime = 31 s

Time = 78

smoothSolver:  Solving for Ux, Initial residual = 0.001359396, Final residual = 0.00011163145, No Iterations 2
smoothSolver:  Solving for Uy, Initial residual = 0.0022267627, Final residual = 1.1446472e-05, No Iterations 2
GAMG:  Solving for p, Initial residual = 0.019913108, Final residual = 0.0018312183, No Iterations 12
time step continuity errors : sum local = 2.5051124e-06, global = -9.6639144e-09, cumulative = -3.2612973e-06
smoothSolver:  Solving for nuTilda, Initial residual = 0.0013681422, Final residual = 0.00011205001, No Iterations 2
ExecutionTime = 30.79 s  ClockTime = 31 s

Time = 79

smoothSolver:  Solving for Ux, Initial residual = 0.0013409951, Final residual = 0.00011014898, No Iterations 2
smoothSolver:  Solving for Uy, Initial residual = 0.0022014371, Final residual = 1.1317699e-05, No Iterations 2
GAMG:  Solving for p, Initial residual = 0.019547849, Final residual = 0.0018056478, No Iterations 12
time step continuity errors : sum local = 2.463813e-06, global = -6.6299688e-09, cumulative = -3.2679273e-06
smoothSolver:  Solving for nuTilda, Initial residual = 0.001337144, Final residual = 0.00010951285, No Iterations 2
ExecutionTime = 31.11 s  ClockTime = 31 s

Time = 80

smoothSolver:  Solving for Ux, Initial residual = 0.0013230534, Final residual = 0.00010870275, No Iterations 2
smoothSolver:  Solving for Uy, Initial residual = 0.0021757104, Final residual = 1.1162193e-05, No Iterations 2
GAMG:  Solving for p, Initial residual = 0.019192189, Final residual = 0.001793236, No Iterations 12
time step continuity errors : sum local = 2.4424647e-06, global = -4.5519638e-09, cumulative = -3.2724792e-06
smoothSolver:  Solving for nuTilda, Initial residual = 0.0013065376, Final residual = 0.00010700699, No Iterations 2
ExecutionTime = 31.43 s  ClockTime = 31 s

Time = 81

smoothSolver:  Solving for Ux, Initial residual = 0.0013055485, Final residual = 0.000107291, No Iterations 2
smoothSolver:  Solving for Uy, Initial residual = 0.0021508786, Final residual = 1.0996427e-05, No Iterations 2
GAMG:  Solving for p, Initial residual = 0.018838708, Final residual = 0.0017774096, No Iterations 12
time step continuity errors : sum local = 2.4183288e-06, global = -4.5824436e-10, cumulative = -3.2729375e-06
smoothSolver:  Solving for nuTilda, Initial residual = 0.0012773457, Final residual = 0.00010461651, No Iterations 2
ExecutionTime = 31.76 s  ClockTime = 32 s

Time = 82

smoothSolver:  Solving for Ux, Initial residual = 0.0012884629, Final residual = 0.00010591232, No Iterations 2
smoothSolver:  Solving for Uy, Initial residual = 0.0021292106, Final residual = 1.0836092e-05, No Iterations 2
GAMG:  Solving for p, Initial residual = 0.018463496, Final residual = 0.001758189, No Iterations 12
time step continuity errors : sum local = 2.3927284e-06, global = 1.4437864e-09, cumulative = -3.2714937e-06
smoothSolver:  Solving for nuTilda, Initial residual = 0.0012490902, Final residual = 0.00010230257, No Iterations 2
ExecutionTime = 32.08 s  ClockTime = 32 s

Time = 83

smoothSolver:  Solving for Ux, Initial residual = 0.0012717979, Final residual = 0.00010456692, No Iterations 2
smoothSolver:  Solving for Uy, Initial residual = 0.0021113494, Final residual = 1.0720969e-05, No Iterations 2
GAMG:  Solving for p, Initial residual = 0.018108184, Final residual = 0.0017487212, No Iterations 12
time step continuity errors : sum local = 2.3803651e-06, global = 1.1996242e-09, cumulative = -3.2702941e-06
smoothSolver:  Solving for nuTilda, Initial residual = 0.0012210268, Final residual = 0.00010000374, No Iterations 2
ExecutionTime = 32.4 s  ClockTime = 32 s

Time = 84

smoothSolver:  Solving for Ux, Initial residual = 0.0012555379, Final residual = 0.00010325364, No Iterations 2
smoothSolver:  Solving for Uy, Initial residual = 0.0020942931, Final residual = 1.0587493e-05, No Iterations 2
GAMG:  Solving for p, Initial residual = 0.017783096, Final residual = 0.0017589009, No Iterations 12
time step continuity errors : sum local = 2.3928145e-06, global = -1.919474e-09, cumulative = -3.2722135e-06
smoothSolver:  Solving for nuTilda, Initial residual = 0.001193991, Final residual = 9.7788583e-05, No Iterations 2
ExecutionTime = 32.73 s  ClockTime = 33 s

Time = 85

smoothSolver:  Solving for Ux, Initial residual = 0.0012396683, Final residual = 0.00010197136, No Iterations 2
smoothSolver:  Solving for Uy, Initial residual = 0.0020753564, Final residual = 1.0450231e-05, No Iterations 2
GAMG:  Solving for p, Initial residual = 0.017477294, Final residual = 0.0014674361, No Iterations 14
time step continuity errors : sum local = 1.9928301e-06, global = -4.6312061e-09, cumulative = -3.2768448e-06
smoothSolver:  Solving for nuTilda, Initial residual = 0.0011680729, Final residual = 9.566491e-05, No Iterations 2
ExecutionTime = 33.07 s  ClockTime = 33 s

Time = 86

smoothSolver:  Solving for Ux, Initial residual = 0.0012241631, Final residual = 0.0001007179, No Iterations 2
smoothSolver:  Solving for Uy, Initial residual = 0.002053901, Final residual = 1.0284372e-05, No Iterations 2
GAMG:  Solving for p, Initial residual = 0.017081784, Final residual = 0.0016927561, No Iterations 12
time step continuity errors : sum local = 2.2928925e-06, global = -7.9961774e-09, cumulative = -3.2848409e-06
smoothSolver:  Solving for nuTilda, Initial residual = 0.0011423811, Final residual = 9.355941e-05, No Iterations 2
ExecutionTime = 33.4 s  ClockTime = 33 s

Time = 87

smoothSolver:  Solving for Ux, Initial residual = 0.0012090082, Final residual = 9.9492277e-05, No Iterations 2
smoothSolver:  Solving for Uy, Initial residual = 0.0020329655, Final residual = 1.0189646e-05, No Iterations 2
GAMG:  Solving for p, Initial residual = 0.01679918, Final residual = 0.001672522, No Iterations 12
time step continuity errors : sum local = 2.261298e-06, global = -8.1826014e-09, cumulative = -3.2930235e-06
smoothSolver:  Solving for nuTilda, Initial residual = 0.0011173001, Final residual = 9.1503457e-05, No Iterations 2
ExecutionTime = 33.72 s  ClockTime = 34 s

Time = 88

smoothSolver:  Solving for Ux, Initial residual = 0.0011941949, Final residual = 9.8293775e-05, No Iterations 2
smoothSolver:  Solving for Uy, Initial residual = 0.0020122866, Final residual = 1.0079441e-05, No Iterations 2
GAMG:  Solving for p, Initial residual = 0.016511323, Final residual = 0.0013740882, No Iterations 14
time step continuity errors : sum local = 1.855175e-06, global = -7.3452703e-09, cumulative = -3.3003688e-06
smoothSolver:  Solving for nuTilda, Initial residual = 0.0010933325, Final residual = 8.9538605e-05, No Iterations 2
ExecutionTime = 34.06 s  ClockTime = 34 s

Time = 89

smoothSolver:  Solving for Ux, Initial residual = 0.001179723, Final residual = 9.7122321e-05, No Iterations 2
smoothSolver:  Solving for Uy, Initial residual = 0.0019923327, Final residual = 9.9374377e-06, No Iterations 2
GAMG:  Solving for p, Initial residual = 0.016117396, Final residual = 0.0013363107, No Iterations 14
time step continuity errors : sum local = 1.8023227e-06, global = -7.048932e-09, cumulative = -3.3074177e-06
smoothSolver:  Solving for nuTilda, Initial residual = 0.0010698064, Final residual = 8.7609738e-05, No Iterations 2
ExecutionTime = 34.41 s  ClockTime = 34 s

Time = 90

smoothSolver:  Solving for Ux, Initial residual = 0.0011655794, Final residual = 9.5977021e-05, No Iterations 2
smoothSolver:  Solving for Uy, Initial residual = 0.0019741143, Final residual = 9.8097894e-06, No Iterations 2
GAMG:  Solving for p, Initial residual = 0.01577084, Final residual = 0.001305579, No Iterations 14
time step continuity errors : sum local = 1.7592535e-06, global = -2.1117924e-09, cumulative = -3.3095295e-06
smoothSolver:  Solving for nuTilda, Initial residual = 0.0010465769, Final residual = 8.5704756e-05, No Iterations 2
ExecutionTime = 34.75 s  ClockTime = 35 s

Time = 91

smoothSolver:  Solving for Ux, Initial residual = 0.0011517535, Final residual = 9.4857019e-05, No Iterations 2
smoothSolver:  Solving for Uy, Initial residual = 0.0019574899, Final residual = 9.6969207e-06, No Iterations 2
GAMG:  Solving for p, Initial residual = 0.015457714, Final residual = 0.0012908492, No Iterations 14
time step continuity errors : sum local = 1.7382033e-06, global = -5.0293306e-10, cumulative = -3.3100325e-06
smoothSolver:  Solving for nuTilda, Initial residual = 0.0010242577, Final residual = 8.3874154e-05, No Iterations 2
ExecutionTime = 35.1 s  ClockTime = 35 s

Time = 92

smoothSolver:  Solving for Ux, Initial residual = 0.0011382233, Final residual = 9.3760537e-05, No Iterations 2
smoothSolver:  Solving for Uy, Initial residual = 0.0019413607, Final residual = 9.595579e-06, No Iterations 2
GAMG:  Solving for p, Initial residual = 0.015144329, Final residual = 0.0012775948, No Iterations 14
time step continuity errors : sum local = 1.719187e-06, global = -1.5102046e-10, cumulative = -3.3101835e-06
smoothSolver:  Solving for nuTilda, Initial residual = 0.0010026222, Final residual = 8.2099544e-05, No Iterations 2
ExecutionTime = 35.44 s  ClockTime = 35 s

Time = 93

smoothSolver:  Solving for Ux, Initial residual = 0.0011249799, Final residual = 9.2686864e-05, No Iterations 2
smoothSolver:  Solving for Uy, Initial residual = 0.001924622, Final residual = 9.5000691e-06, No Iterations 2
GAMG:  Solving for p, Initial residual = 0.014852693, Final residual = 0.0012744739, No Iterations 14
time step continuity errors : sum local = 1.7136471e-06, global = -4.4324131e-10, cumulative = -3.3106267e-06
smoothSolver:  Solving for nuTilda, Initial residual = 0.00098118248, Final residual = 8.0340637e-05, No Iterations 2
ExecutionTime = 35.8 s  ClockTime = 36 s

Time = 94

smoothSolver:  Solving for Ux, Initial residual = 0.0011120161, Final residual = 9.1635478e-05, No Iterations 2
smoothSolver:  Solving for Uy, Initial residual = 0.0019072805, Final residual = 9.3963448e-06, No Iterations 2
GAMG:  Solving for p, Initial residual = 0.014585018, Final residual = 0.0012787971, No Iterations 14
time step continuity errors : sum local = 1.7174095e-06, global = -2.282163e-09, cumulative = -3.3129089e-06
smoothSolver:  Solving for nuTilda, Initial residual = 0.00096033186, Final residual = 7.8629761e-05, No Iterations 2
ExecutionTime = 36.17 s  ClockTime = 36 s

Time = 95

smoothSolver:  Solving for Ux, Initial residual = 0.0010993313, Final residual = 9.0606362e-05, No Iterations 2
smoothSolver:  Solving for Uy, Initial residual = 0.0018901432, Final residual = 9.2828482e-06, No Iterations 2
GAMG:  Solving for p, Initial residual = 0.014332728, Final residual = 0.0012755519, No Iterations 14
time step continuity errors : sum local = 1.7103797e-06, global = -3.0432791e-09, cumulative = -3.3159522e-06
smoothSolver:  Solving for nuTilda, Initial residual = 0.00094027765, Final residual = 7.6984145e-05, No Iterations 2
ExecutionTime = 36.55 s  ClockTime = 37 s

Time = 96

smoothSolver:  Solving for Ux, Initial residual = 0.0010869169, Final residual = 8.9598828e-05, No Iterations 2
smoothSolver:  Solving for Uy, Initial residual = 0.0018738275, Final residual = 9.1763665e-06, No Iterations 2
GAMG:  Solving for p, Initial residual = 0.014079079, Final residual = 0.001261141, No Iterations 14
time step continuity errors : sum local = 1.6886452e-06, global = -7.2801157e-09, cumulative = -3.3232323e-06
smoothSolver:  Solving for nuTilda, Initial residual = 0.00092052598, Final residual = 7.5363151e-05, No Iterations 2
ExecutionTime = 36.9 s  ClockTime = 37 s

Time = 97

smoothSolver:  Solving for Ux, Initial residual = 0.0010747647, Final residual = 8.8612213e-05, No Iterations 2
smoothSolver:  Solving for Uy, Initial residual = 0.0018582608, Final residual = 9.0755431e-06, No Iterations 2
GAMG:  Solving for p, Initial residual = 0.013830616, Final residual = 0.0012472107, No Iterations 14
time step continuity errors : sum local = 1.6681547e-06, global = -7.9838502e-09, cumulative = -3.3312161e-06
smoothSolver:  Solving for nuTilda, Initial residual = 0.00090107434, Final residual = 7.3766451e-05, No Iterations 2
ExecutionTime = 37.24 s  ClockTime = 37 s

Time = 98

smoothSolver:  Solving for Ux, Initial residual = 0.0010628595, Final residual = 8.7645287e-05, No Iterations 2
smoothSolver:  Solving for Uy, Initial residual = 0.001842854, Final residual = 8.9832129e-06, No Iterations 2
GAMG:  Solving for p, Initial residual = 0.013590823, Final residual = 0.0012380731, No Iterations 14
time step continuity errors : sum local = 1.6547302e-06, global = -7.5181982e-09, cumulative = -3.3387343e-06
smoothSolver:  Solving for nuTilda, Initial residual = 0.00088234031, Final residual = 7.2228518e-05, No Iterations 2
ExecutionTime = 37.58 s  ClockTime = 38 s

Time = 99

smoothSolver:  Solving for Ux, Initial residual = 0.001051191, Final residual = 8.6697276e-05, No Iterations 2
smoothSolver:  Solving for Uy, Initial residual = 0.0018265501, Final residual = 8.885981e-06, No Iterations 2
GAMG:  Solving for p, Initial residual = 0.013361206, Final residual = 0.0012315279, No Iterations 14
time step continuity errors : sum local = 1.6445298e-06, global = -6.8075006e-09, cumulative = -3.3455418e-06
smoothSolver:  Solving for nuTilda, Initial residual = 0.0008640876, Final residual = 7.0730024e-05, No Iterations 2
ExecutionTime = 37.93 s  ClockTime = 38 s

Time = 100

smoothSolver:  Solving for Ux, Initial residual = 0.0010397514, Final residual = 8.5767562e-05, No Iterations 2
smoothSolver:  Solving for Uy, Initial residual = 0.0018098039, Final residual = 8.7959801e-06, No Iterations 2
GAMG:  Solving for p, Initial residual = 0.01313782, Final residual = 0.001220484, No Iterations 14
time step continuity errors : sum local = 1.6278418e-06, global = -5.2783571e-09, cumulative = -3.3508202e-06
smoothSolver:  Solving for nuTilda, Initial residual = 0.00084602105, Final residual = 6.9246566e-05, No Iterations 2
ExecutionTime = 38.27 s  ClockTime = 38 s

Time = 101

smoothSolver:  Solving for Ux, Initial residual = 0.0010285435, Final residual = 8.4856406e-05, No Iterations 2
smoothSolver:  Solving for Uy, Initial residual = 0.0017932613, Final residual = 8.7074522e-06, No Iterations 2
GAMG:  Solving for p, Initial residual = 0.012923873, Final residual = 0.0012123479, No Iterations 14
time step continuity errors : sum local = 1.6149702e-06, global = -8.4059854e-10, cumulative = -3.3516608e-06
smoothSolver:  Solving for nuTilda, Initial residual = 0.00082844663, Final residual = 6.7803241e-05, No Iterations 2
ExecutionTime = 38.62 s  ClockTime = 39 s

Time = 102

smoothSolver:  Solving for Ux, Initial residual = 0.0010175605, Final residual = 8.3963267e-05, No Iterations 2
smoothSolver:  Solving for Uy, Initial residual = 0.0017776793, Final residual = 8.6254376e-06, No Iterations 2
GAMG:  Solving for p, Initial residual = 0.012713521, Final residual = 0.0012130448, No Iterations 14
time step continuity errors : sum local = 1.614044e-06, global = -1.5730069e-10, cumulative = -3.3518181e-06
smoothSolver:  Solving for nuTilda, Initial residual = 0.00081145066, Final residual = 6.6407364e-05, No Iterations 2
ExecutionTime = 38.96 s  ClockTime = 39 s

Time = 103

smoothSolver:  Solving for Ux, Initial residual = 0.0010067961, Final residual = 8.3087623e-05, No Iterations 2
smoothSolver:  Solving for Uy, Initial residual = 0.0017629477, Final residual = 8.5343841e-06, No Iterations 2
GAMG:  Solving for p, Initial residual = 0.012509107, Final residual = 0.0012173343, No Iterations 14
time step continuity errors : sum local = 1.61827e-06, global = -6.2905758e-10, cumulative = -3.3524471e-06
smoothSolver:  Solving for nuTilda, Initial residual = 0.00079495913, Final residual = 6.5033489e-05, No Iterations 2
ExecutionTime = 39.31 s  ClockTime = 39 s

Time = 104

smoothSolver:  Solving for Ux, Initial residual = 0.00099624246, Final residual = 8.2228861e-05, No Iterations 2
smoothSolver:  Solving for Uy, Initial residual = 0.0017489049, Final residual = 8.4463805e-06, No Iterations 2
GAMG:  Solving for p, Initial residual = 0.012306701, Final residual = 0.0012117226, No Iterations 14
time step continuity errors : sum local = 1.6093099e-06, global = -1.8188245e-09, cumulative = -3.354266e-06
smoothSolver:  Solving for nuTilda, Initial residual = 0.0007793919, Final residual = 6.3695281e-05, No Iterations 2
ExecutionTime = 39.66 s  ClockTime = 40 s

Time = 105

smoothSolver:  Solving for Ux, Initial residual = 0.00098588513, Final residual = 8.1385801e-05, No Iterations 2
smoothSolver:  Solving for Uy, Initial residual = 0.0017348881, Final residual = 8.3626346e-06, No Iterations 2
GAMG:  Solving for p, Initial residual = 0.012110706, Final residual = 0.0011990865, No Iterations 14
time step continuity errors : sum local = 1.5909691e-06, global = -3.9673906e-09, cumulative = -3.3582334e-06
smoothSolver:  Solving for nuTilda, Initial residual = 0.00076468431, Final residual = 6.2458193e-05, No Iterations 2
ExecutionTime = 40 s  ClockTime = 40 s

Time = 106

smoothSolver:  Solving for Ux, Initial residual = 0.00097571887, Final residual = 8.0558042e-05, No Iterations 2
smoothSolver:  Solving for Uy, Initial residual = 0.0017202158, Final residual = 8.2873232e-06, No Iterations 2
GAMG:  Solving for p, Initial residual = 0.011925136, Final residual = 0.0010007378, No Iterations 16
time step continuity errors : sum local = 1.3261655e-06, global = -3.812069e-09, cumulative = -3.3620454e-06
smoothSolver:  Solving for nuTilda, Initial residual = 0.00075060995, Final residual = 6.1281087e-05, No Iterations 2
ExecutionTime = 40.37 s  ClockTime = 40 s

Time = 107

smoothSolver:  Solving for Ux, Initial residual = 0.00096574569, Final residual = 7.974574e-05, No Iterations 2
smoothSolver:  Solving for Uy, Initial residual = 0.0017036131, Final residual = 8.1921141e-06, No Iterations 2
GAMG:  Solving for p, Initial residual = 0.011668899, Final residual = 0.0011502515, No Iterations 14
time step continuity errors : sum local = 1.521638e-06, global = -7.1369351e-09, cumulative = -3.3691824e-06
smoothSolver:  Solving for nuTilda, Initial residual = 0.0007369261, Final residual = 6.0141277e-05, No Iterations 2
ExecutionTime = 40.71 s  ClockTime = 41 s

Time = 108

smoothSolver:  Solving for Ux, Initial residual = 0.00095596071, Final residual = 7.8948632e-05, No Iterations 2
smoothSolver:  Solving for Uy, Initial residual = 0.0016873587, Final residual = 8.1242306e-06, No Iterations 2
GAMG:  Solving for p, Initial residual = 0.011505113, Final residual = 0.0011486762, No Iterations 14
time step continuity errors : sum local = 1.5173806e-06, global = -6.561082e-09, cumulative = -3.3757434e-06
smoothSolver:  Solving for nuTilda, Initial residual = 0.00072369665, Final residual = 5.9047115e-05, No Iterations 2
ExecutionTime = 41.05 s  ClockTime = 41 s

Time = 109

smoothSolver:  Solving for Ux, Initial residual = 0.00094635967, Final residual = 7.8166304e-05, No Iterations 2
smoothSolver:  Solving for Uy, Initial residual = 0.0016713894, Final residual = 8.058594e-06, No Iterations 2
GAMG:  Solving for p, Initial residual = 0.011353562, Final residual = 0.00096761965, No Iterations 16
time step continuity errors : sum local = 1.2764456e-06, global = -5.5869025e-09, cumulative = -3.3813303e-06
smoothSolver:  Solving for nuTilda, Initial residual = 0.0007112047, Final residual = 5.7999855e-05, No Iterations 2
ExecutionTime = 41.43 s  ClockTime = 41 s

Time = 110

smoothSolver:  Solving for Ux, Initial residual = 0.0009369386, Final residual = 7.739836e-05, No Iterations 2
smoothSolver:  Solving for Uy, Initial residual = 0.0016558237, Final residual = 7.9754783e-06, No Iterations 2
GAMG:  Solving for p, Initial residual = 0.011128387, Final residual = 0.00094899144, No Iterations 16
time step continuity errors : sum local = 1.2503232e-06, global = -9.6908042e-10, cumulative = -3.3822994e-06
smoothSolver:  Solving for nuTilda, Initial residual = 0.00069896808, Final residual = 5.6991942e-05, No Iterations 2
ExecutionTime = 41.79 s  ClockTime = 42 s

Time = 111

smoothSolver:  Solving for Ux, Initial residual = 0.00092768728, Final residual = 7.6644042e-05, No Iterations 2
smoothSolver:  Solving for Uy, Initial residual = 0.0016414934, Final residual = 7.8948447e-06, No Iterations 2
GAMG:  Solving for p, Initial residual = 0.010925268, Final residual = 0.00093109269, No Iterations 16
time step continuity errors : sum local = 1.2257096e-06, global = -1.1741762e-09, cumulative = -3.3834736e-06
smoothSolver:  Solving for nuTilda, Initial residual = 0.00068706333, Final residual = 5.6009454e-05, No Iterations 2
ExecutionTime = 42.16 s  ClockTime = 42 s

Time = 112

smoothSolver:  Solving for Ux, Initial residual = 0.0009185982, Final residual = 7.5902787e-05, No Iterations 2
smoothSolver:  Solving for Uy, Initial residual = 0.0016277202, Final residual = 7.8196517e-06, No Iterations 2
GAMG:  Solving for p, Initial residual = 0.0107439, Final residual = 0.00092274779, No Iterations 16
time step continuity errors : sum local = 1.2134894e-06, global = -1.8774236e-09, cumulative = -3.385351e-06
smoothSolver:  Solving for nuTilda, Initial residual = 0.00067552235, Final residual = 5.50624e-05, No Iterations 2
ExecutionTime = 42.53 s  ClockTime = 43 s

Time = 113

smoothSolver:  Solving for Ux, Initial residual = 0.00090966588, Final residual = 7.5174152e-05, No Iterations 2
smoothSolver:  Solving for Uy, Initial residual = 0.001613829, Final residual = 7.7549203e-06, No Iterations 2
GAMG:  Solving for p, Initial residual = 0.010573626, Final residual = 0.0009132776, No Iterations 16
time step continuity errors : sum local = 1.1993418e-06, global = -3.3830538e-09, cumulative = -3.3887341e-06
smoothSolver:  Solving for nuTilda, Initial residual = 0.00066453797, Final residual = 5.4154123e-05, No Iterations 2
ExecutionTime = 42.9 s  ClockTime = 43 s

Time = 114

smoothSolver:  Solving for Ux, Initial residual = 0.00090089433, Final residual = 7.4458448e-05, No Iterations 2
smoothSolver:  Solving for Uy, Initial residual = 0.0015991803, Final residual = 7.6929358e-06, No Iterations 2
GAMG:  Solving for p, Initial residual = 0.010414209, Final residual = 0.00091133676, No Iterations 16
time step continuity errors : sum local = 1.194936e-06, global = -4.8089093e-09, cumulative = -3.393543e-06
smoothSolver:  Solving for nuTilda, Initial residual = 0.00065370491, Final residual = 5.3262592e-05, No Iterations 2
ExecutionTime = 43.27 s  ClockTime = 43 s

Time = 115

smoothSolver:  Solving for Ux, Initial residual = 0.00089227945, Final residual = 7.3755345e-05, No Iterations 2
smoothSolver:  Solving for Uy, Initial residual = 0.0015835427, Final residual = 7.6244551e-06, No Iterations 2
GAMG:  Solving for p, Initial residual = 0.010268396, Final residual = 0.00091597819, No Iterations 16
time step continuity errors : sum local = 1.1990291e-06, global = -4.1335057e-09, cumulative = -3.3976765e-06
smoothSolver:  Solving for nuTilda, Initial residual = 0.00064332361, Final residual = 5.2392213e-05, No Iterations 2
ExecutionTime = 43.63 s  ClockTime = 44 s

Time = 116

smoothSolver:  Solving for Ux, Initial residual = 0.00088381705, Final residual = 7.3064517e-05, No Iterations 2
smoothSolver:  Solving for Uy, Initial residual = 0.0015672944, Final residual = 7.5514645e-06, No Iterations 2
GAMG:  Solving for p, Initial residual = 0.01013008, Final residual = 0.00091972455, No Iterations 16
time step continuity errors : sum local = 1.2019089e-06, global = -3.7239593e-09, cumulative = -3.4014005e-06
smoothSolver:  Solving for nuTilda, Initial residual = 0.00063327456, Final residual = 5.1573599e-05, No Iterations 2
ExecutionTime = 44.01 s  ClockTime = 44 s

Time = 117

smoothSolver:  Solving for Ux, Initial residual = 0.00087550319, Final residual = 7.2385651e-05, No Iterations 2
smoothSolver:  Solving for Uy, Initial residual = 0.0015515643, Final residual = 7.4822196e-06, No Iterations 2
GAMG:  Solving for p, Initial residual = 0.0099914859, Final residual = 0.0009153087, No Iterations 16
time step continuity errors : sum local = 1.19427e-06, global = -2.8311944e-09, cumulative = -3.4042317e-06
smoothSolver:  Solving for nuTilda, Initial residual = 0.00062354583, Final residual = 5.0767094e-05, No Iterations 2
ExecutionTime = 44.37 s  ClockTime = 44 s

Time = 118

smoothSolver:  Solving for Ux, Initial residual = 0.00086732935, Final residual = 7.1718049e-05, No Iterations 2
smoothSolver:  Solving for Uy, Initial residual = 0.0015367116, Final residual = 7.4170242e-06, No Iterations 2
GAMG:  Solving for p, Initial residual = 0.0098535547, Final residual = 0.00091179501, No Iterations 16
time step continuity errors : sum local = 1.1881715e-06, global = -2.193582e-09, cumulative = -3.4064252e-06
smoothSolver:  Solving for nuTilda, Initial residual = 0.00061398407, Final residual = 4.9987674e-05, No Iterations 2
ExecutionTime = 44.74 s  ClockTime = 45 s

Time = 119

smoothSolver:  Solving for Ux, Initial residual = 0.0008592908, Final residual = 7.1061343e-05, No Iterations 2
smoothSolver:  Solving for Uy, Initial residual = 0.0015225367, Final residual = 7.3532153e-06, No Iterations 2
GAMG:  Solving for p, Initial residual = 0.009713901, Final residual = 0.00091326311, No Iterations 16
time step continuity errors : sum local = 1.1885989e-06, global = -2.1793796e-09, cumulative = -3.4086046e-06
smoothSolver:  Solving for nuTilda, Initial residual = 0.00060463462, Final residual = 4.922511e-05, No Iterations 2
ExecutionTime = 45.11 s  ClockTime = 45 s

Time = 120

smoothSolver:  Solving for Ux, Initial residual = 0.0008513838, Final residual = 7.0415243e-05, No Iterations 2
smoothSolver:  Solving for Uy, Initial residual = 0.0015084264, Final residual = 7.2895506e-06, No Iterations 2
GAMG:  Solving for p, Initial residual = 0.0095899037, Final residual = 0.00090963097, No Iterations 16
time step continuity errors : sum local = 1.1821094e-06, global = -3.4178251e-09, cumulative = -3.4120224e-06
smoothSolver:  Solving for nuTilda, Initial residual = 0.00059582215, Final residual = 4.8495164e-05, No Iterations 2
ExecutionTime = 45.48 s  ClockTime = 46 s

Time = 121

smoothSolver:  Solving for Ux, Initial residual = 0.000843611, Final residual = 6.9779971e-05, No Iterations 2
smoothSolver:  Solving for Uy, Initial residual = 0.001493923, Final residual = 7.227858e-06, No Iterations 2
GAMG:  Solving for p, Initial residual = 0.0094706104, Final residual = 0.00090655935, No Iterations 16
time step continuity errors : sum local = 1.1762109e-06, global = -4.1414907e-09, cumulative = -3.4161639e-06
smoothSolver:  Solving for nuTilda, Initial residual = 0.00058706409, Final residual = 4.7782896e-05, No Iterations 2
ExecutionTime = 45.85 s  ClockTime = 46 s

Time = 122

smoothSolver:  Solving for Ux, Initial residual = 0.00083596911, Final residual = 6.9155262e-05, No Iterations 2
smoothSolver:  Solving for Uy, Initial residual = 0.0014789265, Final residual = 7.1665631e-06, No Iterations 2
GAMG:  Solving for p, Initial residual = 0.0093585859, Final residual = 0.00090350384, No Iterations 16
time step continuity errors : sum local = 1.1703096e-06, global = -5.776861e-09, cumulative = -3.4219408e-06
smoothSolver:  Solving for nuTilda, Initial residual = 0.00057848213, Final residual = 4.7073548e-05, No Iterations 2
ExecutionTime = 46.22 s  ClockTime = 46 s

Time = 123

smoothSolver:  Solving for Ux, Initial residual = 0.00082845483, Final residual = 6.8540858e-05, No Iterations 2
smoothSolver:  Solving for Uy, Initial residual = 0.0014637396, Final residual = 7.1050797e-06, No Iterations 2
GAMG:  Solving for p, Initial residual = 0.0092471001, Final residual = 0.00090296808, No Iterations 16
time step continuity errors : sum local = 1.1676487e-06, global = -5.8994286e-09, cumulative = -3.4278402e-06
smoothSolver:  Solving for nuTilda, Initial residual = 0.00057029605, Final residual = 4.6405736e-05, No Iterations 2
ExecutionTime = 46.58 s  ClockTime = 47 s

Time = 124

smoothSolver:  Solving for Ux, Initial residual = 0.0008210651, Final residual = 6.7936511e-05, No Iterations 2
smoothSolver:  Solving for Uy, Initial residual = 0.0014487088, Final residual = 7.044506e-06, No Iterations 2
GAMG:  Solving for p, Initial residual = 0.009132572, Final residual = 0.00090303026, No Iterations 16
time step continuity errors : sum local = 1.1658702e-06, global = -4.4602828e-09, cumulative = -3.4323005e-06
smoothSolver:  Solving for nuTilda, Initial residual = 0.00056227391, Final residual = 4.5753127e-05, No Iterations 2
ExecutionTime = 46.95 s  ClockTime = 47 s

Time = 125

smoothSolver:  Solving for Ux, Initial residual = 0.00081379354, Final residual = 6.7341705e-05, No Iterations 2
smoothSolver:  Solving for Uy, Initial residual = 0.0014338633, Final residual = 6.9859282e-06, No Iterations 2
GAMG:  Solving for p, Initial residual = 0.0090209203, Final residual = 0.00076628705, No Iterations 18
time step continuity errors : sum local = 9.8778269e-07, global = -2.1150069e-09, cumulative = -3.4344155e-06
smoothSolver:  Solving for nuTilda, Initial residual = 0.00055452965, Final residual = 4.5104934e-05, No Iterations 2
ExecutionTime = 47.35 s  ClockTime = 47 s

Time = 126

smoothSolver:  Solving for Ux, Initial residual = 0.00080663617, Final residual = 6.6756074e-05, No Iterations 2
smoothSolver:  Solving for Uy, Initial residual = 0.0014188031, Final residual = 6.9203111e-06, No Iterations 2
GAMG:  Solving for p, Initial residual = 0.0088579792, Final residual = 0.00087309011, No Iterations 16
time step continuity errors : sum local = 1.1236015e-06, global = -2.9305526e-09, cumulative = -3.4373461e-06
smoothSolver:  Solving for nuTilda, Initial residual = 0.00054695734, Final residual = 4.4487761e-05, No Iterations 2
ExecutionTime = 47.72 s  ClockTime = 48 s

Time = 127

smoothSolver:  Solving for Ux, Initial residual = 0.00079958814, Final residual = 6.6179333e-05, No Iterations 2
smoothSolver:  Solving for Uy, Initial residual = 0.0014049257, Final residual = 6.8698239e-06, No Iterations 2
GAMG:  Solving for p, Initial residual = 0.0087632965, Final residual = 0.00074303745, No Iterations 18
time step continuity errors : sum local = 9.5487322e-07, global = -1.6916515e-09, cumulative = -3.4390377e-06
smoothSolver:  Solving for nuTilda, Initial residual = 0.00053958834, Final residual = 4.3889851e-05, No Iterations 2
ExecutionTime = 48.11 s  ClockTime = 48 s

Time = 128

smoothSolver:  Solving for Ux, Initial residual = 0.00079265377, Final residual = 6.5611741e-05, No Iterations 2
smoothSolver:  Solving for Uy, Initial residual = 0.0013906088, Final residual = 6.8105235e-06, No Iterations 2
GAMG:  Solving for p, Initial residual = 0.0086311671, Final residual = 0.00073185352, No Iterations 18
time step continuity errors : sum local = 9.3901674e-07, global = -2.4970918e-09, cumulative = -3.4415348e-06
smoothSolver:  Solving for nuTilda, Initial residual = 0.00053256617, Final residual = 4.3307804e-05, No Iterations 2
ExecutionTime = 48.5 s  ClockTime = 49 s

Time = 129

smoothSolver:  Solving for Ux, Initial residual = 0.00078582984, Final residual = 6.505309e-05, No Iterations 2
smoothSolver:  Solving for Uy, Initial residual = 0.0013764227, Final residual = 6.7559815e-06, No Iterations 2
GAMG:  Solving for p, Initial residual = 0.0085136006, Final residual = 0.00072207293, No Iterations 18
time step continuity errors : sum local = 9.2498067e-07, global = -2.8562948e-09, cumulative = -3.4443911e-06
[...]

Time = 4969

smoothSolver:  Solving for Ux, Initial residual = 1.4538164e-05, Final residual = 1.2072501e-06, No Iterations 2
smoothSolver:  Solving for Uy, Initial residual = 5.1350008e-05, Final residual = 2.6202848e-07, No Iterations 2
GAMG:  Solving for p, Initial residual = 6.8833743e-06, Final residual = 6.7138647e-07, No Iterations 15
time step continuity errors : sum local = 8.5604195e-08, global = -5.417001e-09, cumulative = 2.3494893e-05
smoothSolver:  Solving for nuTilda, Initial residual = 4.5945664e-05, Final residual = 3.8049984e-06, No Iterations 2
ExecutionTime = 2216.73 s  ClockTime = 2218 s

Time = 4970

smoothSolver:  Solving for Ux, Initial residual = 1.4534235e-05, Final residual = 1.2069299e-06, No Iterations 2
smoothSolver:  Solving for Uy, Initial residual = 5.1297667e-05, Final residual = 2.6209044e-07, No Iterations 2
GAMG:  Solving for p, Initial residual = 6.9186752e-06, Final residual = 5.4601882e-07, No Iterations 17
time step continuity errors : sum local = 6.9634233e-08, global = -4.0494725e-09, cumulative = 2.3490843e-05
smoothSolver:  Solving for nuTilda, Initial residual = 4.5925532e-05, Final residual = 3.8033315e-06, No Iterations 2
ExecutionTime = 2217.1 s  ClockTime = 2218 s

Time = 4971

smoothSolver:  Solving for Ux, Initial residual = 1.453037e-05, Final residual = 1.2066096e-06, No Iterations 2
smoothSolver:  Solving for Uy, Initial residual = 5.1282056e-05, Final residual = 2.6204236e-07, No Iterations 2
GAMG:  Solving for p, Initial residual = 6.908104e-06, Final residual = 6.821576e-07, No Iterations 15
time step continuity errors : sum local = 8.7015333e-08, global = -4.3715297e-09, cumulative = 2.3486472e-05
smoothSolver:  Solving for nuTilda, Initial residual = 4.5905413e-05, Final residual = 3.8016657e-06, No Iterations 2
ExecutionTime = 2217.45 s  ClockTime = 2218 s

Time = 4972

smoothSolver:  Solving for Ux, Initial residual = 1.4526497e-05, Final residual = 1.2062895e-06, No Iterations 2
smoothSolver:  Solving for Uy, Initial residual = 5.1256872e-05, Final residual = 2.6205272e-07, No Iterations 2
GAMG:  Solving for p, Initial residual = 6.9407085e-06, Final residual = 5.3834309e-07, No Iterations 17
time step continuity errors : sum local = 6.8685544e-08, global = -3.1369011e-09, cumulative = 2.3483335e-05
smoothSolver:  Solving for nuTilda, Initial residual = 4.5885308e-05, Final residual = 3.800001e-06, No Iterations 2
ExecutionTime = 2217.83 s  ClockTime = 2219 s

Time = 4973

smoothSolver:  Solving for Ux, Initial residual = 1.4522667e-05, Final residual = 1.2059694e-06, No Iterations 2
smoothSolver:  Solving for Uy, Initial residual = 5.1264122e-05, Final residual = 2.6195107e-07, No Iterations 2
GAMG:  Solving for p, Initial residual = 6.8933174e-06, Final residual = 5.4294601e-07, No Iterations 17
time step continuity errors : sum local = 6.928835e-08, global = -4.005138e-09, cumulative = 2.347933e-05
smoothSolver:  Solving for nuTilda, Initial residual = 4.5865215e-05, Final residual = 3.7983373e-06, No Iterations 2
ExecutionTime = 2218.2 s  ClockTime = 2219 s

Time = 4974

smoothSolver:  Solving for Ux, Initial residual = 1.4518791e-05, Final residual = 1.2056495e-06, No Iterations 2
smoothSolver:  Solving for Uy, Initial residual = 5.1244025e-05, Final residual = 2.6190569e-07, No Iterations 2
GAMG:  Solving for p, Initial residual = 6.8613761e-06, Final residual = 6.6984665e-07, No Iterations 15
time step continuity errors : sum local = 8.5501551e-08, global = -5.354633e-09, cumulative = 2.3473975e-05
smoothSolver:  Solving for nuTilda, Initial residual = 4.5845136e-05, Final residual = 3.7966748e-06, No Iterations 2
ExecutionTime = 2218.55 s  ClockTime = 2220 s

Time = 4975

smoothSolver:  Solving for Ux, Initial residual = 1.4514871e-05, Final residual = 1.2053298e-06, No Iterations 2
smoothSolver:  Solving for Uy, Initial residual = 5.1192274e-05, Final residual = 2.6196866e-07, No Iterations 2
GAMG:  Solving for p, Initial residual = 6.9060011e-06, Final residual = 6.8436901e-07, No Iterations 15
time step continuity errors : sum local = 8.7373867e-08, global = -4.4233944e-09, cumulative = 2.3469552e-05
smoothSolver:  Solving for nuTilda, Initial residual = 4.582507e-05, Final residual = 3.7950133e-06, No Iterations 2
ExecutionTime = 2218.91 s  ClockTime = 2220 s

Time = 4976

smoothSolver:  Solving for Ux, Initial residual = 1.4511004e-05, Final residual = 1.2050101e-06, No Iterations 2
smoothSolver:  Solving for Uy, Initial residual = 5.1167981e-05, Final residual = 2.6196744e-07, No Iterations 2
GAMG:  Solving for p, Initial residual = 6.9508901e-06, Final residual = 5.4854476e-07, No Iterations 17
time step continuity errors : sum local = 7.0048432e-08, global = -3.2307769e-09, cumulative = 2.3466321e-05
smoothSolver:  Solving for nuTilda, Initial residual = 4.5805016e-05, Final residual = 3.7933529e-06, No Iterations 2
ExecutionTime = 2219.28 s  ClockTime = 2220 s

Time = 4977

smoothSolver:  Solving for Ux, Initial residual = 1.4507196e-05, Final residual = 1.2046904e-06, No Iterations 2
smoothSolver:  Solving for Uy, Initial residual = 5.1184435e-05, Final residual = 2.618331e-07, No Iterations 2
GAMG:  Solving for p, Initial residual = 6.8946224e-06, Final residual = 5.5072589e-07, No Iterations 17
time step continuity errors : sum local = 7.0342848e-08, global = -4.1067307e-09, cumulative = 2.3462214e-05
smoothSolver:  Solving for nuTilda, Initial residual = 4.5784976e-05, Final residual = 3.7916936e-06, No Iterations 2
ExecutionTime = 2219.65 s  ClockTime = 2221 s

Time = 4978

smoothSolver:  Solving for Ux, Initial residual = 1.4503338e-05, Final residual = 1.2043709e-06, No Iterations 2
smoothSolver:  Solving for Uy, Initial residual = 5.1171295e-05, Final residual = 2.6176405e-07, No Iterations 2
GAMG:  Solving for p, Initial residual = 6.8508385e-06, Final residual = 6.6807653e-07, No Iterations 15
time step continuity errors : sum local = 8.53505e-08, global = -5.3831429e-09, cumulative = 2.3456831e-05
smoothSolver:  Solving for nuTilda, Initial residual = 4.5764949e-05, Final residual = 3.7900354e-06, No Iterations 2
ExecutionTime = 2220 s  ClockTime = 2221 s

Time = 4979

smoothSolver:  Solving for Ux, Initial residual = 1.449942e-05, Final residual = 1.2040516e-06, No Iterations 2
smoothSolver:  Solving for Uy, Initial residual = 5.1119086e-05, Final residual = 2.6182585e-07, No Iterations 2
GAMG:  Solving for p, Initial residual = 6.8863115e-06, Final residual = 6.7518813e-07, No Iterations 15
time step continuity errors : sum local = 8.6277384e-08, global = -4.3893619e-09, cumulative = 2.3452442e-05
smoothSolver:  Solving for nuTilda, Initial residual = 4.5744935e-05, Final residual = 3.7883783e-06, No Iterations 2
ExecutionTime = 2220.35 s  ClockTime = 2221 s

Time = 4980

smoothSolver:  Solving for Ux, Initial residual = 1.4495547e-05, Final residual = 1.2037323e-06, No Iterations 2
smoothSolver:  Solving for Uy, Initial residual = 5.1089334e-05, Final residual = 2.6183833e-07, No Iterations 2
GAMG:  Solving for p, Initial residual = 6.9298357e-06, Final residual = 5.4137289e-07, No Iterations 17
time step continuity errors : sum local = 6.9193144e-08, global = -3.1699098e-09, cumulative = 2.3449272e-05
smoothSolver:  Solving for nuTilda, Initial residual = 4.5724933e-05, Final residual = 3.7867222e-06, No Iterations 2
ExecutionTime = 2220.73 s  ClockTime = 2222 s

Time = 4981

smoothSolver:  Solving for Ux, Initial residual = 1.4491737e-05, Final residual = 1.203413e-06, No Iterations 2
smoothSolver:  Solving for Uy, Initial residual = 5.1101117e-05, Final residual = 2.6171929e-07, No Iterations 2
GAMG:  Solving for p, Initial residual = 6.8800281e-06, Final residual = 5.4782093e-07, No Iterations 17
time step continuity errors : sum local = 7.0033014e-08, global = -4.0255018e-09, cumulative = 2.3445246e-05
smoothSolver:  Solving for nuTilda, Initial residual = 4.5704945e-05, Final residual = 3.7850672e-06, No Iterations 2
ExecutionTime = 2221.11 s  ClockTime = 2222 s

Time = 4982

smoothSolver:  Solving for Ux, Initial residual = 1.4487887e-05, Final residual = 1.2030939e-06, No Iterations 2
smoothSolver:  Solving for Uy, Initial residual = 5.1088341e-05, Final residual = 2.6165598e-07, No Iterations 2
GAMG:  Solving for p, Initial residual = 6.8393715e-06, Final residual = 6.6998111e-07, No Iterations 15
time step continuity errors : sum local = 8.5668665e-08, global = -5.3445571e-09, cumulative = 2.3439902e-05
smoothSolver:  Solving for nuTilda, Initial residual = 4.5684969e-05, Final residual = 3.7834133e-06, No Iterations 2
ExecutionTime = 2221.46 s  ClockTime = 2222 s

Time = 4983

smoothSolver:  Solving for Ux, Initial residual = 1.448398e-05, Final residual = 1.202775e-06, No Iterations 2
smoothSolver:  Solving for Uy, Initial residual = 5.1039464e-05, Final residual = 2.6171536e-07, No Iterations 2
GAMG:  Solving for p, Initial residual = 6.8767559e-06, Final residual = 6.7748709e-07, No Iterations 15
time step continuity errors : sum local = 8.6646885e-08, global = -4.3782643e-09, cumulative = 2.3435523e-05
smoothSolver:  Solving for nuTilda, Initial residual = 4.5665007e-05, Final residual = 3.7817605e-06, No Iterations 2
ExecutionTime = 2221.81 s  ClockTime = 2223 s

Time = 4984

smoothSolver:  Solving for Ux, Initial residual = 1.4480115e-05, Final residual = 1.2024561e-06, No Iterations 2
smoothSolver:  Solving for Uy, Initial residual = 5.1012626e-05, Final residual = 2.6172451e-07, No Iterations 2
GAMG:  Solving for p, Initial residual = 6.9180167e-06, Final residual = 5.4125823e-07, No Iterations 17
time step continuity errors : sum local = 6.9239014e-08, global = -3.1833325e-09, cumulative = 2.343234e-05
smoothSolver:  Solving for nuTilda, Initial residual = 4.5645057e-05, Final residual = 3.7801087e-06, No Iterations 2
ExecutionTime = 2222.18 s  ClockTime = 2223 s

Time = 4985

smoothSolver:  Solving for Ux, Initial residual = 1.4476309e-05, Final residual = 1.2021372e-06, No Iterations 2
smoothSolver:  Solving for Uy, Initial residual = 5.1024518e-05, Final residual = 2.6160326e-07, No Iterations 2
GAMG:  Solving for p, Initial residual = 6.865622e-06, Final residual = 5.4573884e-07, No Iterations 17
time step continuity errors : sum local = 6.9827816e-08, global = -4.0483326e-09, cumulative = 2.3428292e-05
smoothSolver:  Solving for nuTilda, Initial residual = 4.562512e-05, Final residual = 3.778458e-06, No Iterations 2
ExecutionTime = 2222.56 s  ClockTime = 2224 s

Time = 4986

smoothSolver:  Solving for Ux, Initial residual = 1.4472459e-05, Final residual = 1.2018185e-06, No Iterations 2
smoothSolver:  Solving for Uy, Initial residual = 5.100976e-05, Final residual = 2.6153856e-07, No Iterations 2
GAMG:  Solving for p, Initial residual = 6.8245678e-06, Final residual = 6.6683784e-07, No Iterations 15
time step continuity errors : sum local = 8.5341244e-08, global = -5.3457384e-09, cumulative = 2.3422946e-05
smoothSolver:  Solving for nuTilda, Initial residual = 4.5605196e-05, Final residual = 3.7768085e-06, No Iterations 2
ExecutionTime = 2222.91 s  ClockTime = 2224 s

Time = 4987

smoothSolver:  Solving for Ux, Initial residual = 1.4468557e-05, Final residual = 1.2015e-06, No Iterations 2
smoothSolver:  Solving for Uy, Initial residual = 5.0959364e-05, Final residual = 2.6159571e-07, No Iterations 2
GAMG:  Solving for p, Initial residual = 6.8623152e-06, Final residual = 6.7564742e-07, No Iterations 15
time step continuity errors : sum local = 8.6487032e-08, global = -4.370775e-09, cumulative = 2.3418575e-05
smoothSolver:  Solving for nuTilda, Initial residual = 4.5585284e-05, Final residual = 3.7751599e-06, No Iterations 2
ExecutionTime = 2223.26 s  ClockTime = 2224 s

Time = 4988

smoothSolver:  Solving for Ux, Initial residual = 1.4464699e-05, Final residual = 1.2011816e-06, No Iterations 2
smoothSolver:  Solving for Uy, Initial residual = 5.0932436e-05, Final residual = 2.6160222e-07, No Iterations 2
GAMG:  Solving for p, Initial residual = 6.9052584e-06, Final residual = 5.4049942e-07, No Iterations 17
time step continuity errors : sum local = 6.9202281e-08, global = -3.1601015e-09, cumulative = 2.3415415e-05
smoothSolver:  Solving for nuTilda, Initial residual = 4.5565386e-05, Final residual = 3.7735125e-06, No Iterations 2
ExecutionTime = 2223.63 s  ClockTime = 2225 s

Time = 4989

smoothSolver:  Solving for Ux, Initial residual = 1.4460899e-05, Final residual = 1.2008631e-06, No Iterations 2
smoothSolver:  Solving for Uy, Initial residual = 5.0945462e-05, Final residual = 2.6148076e-07, No Iterations 2
GAMG:  Solving for p, Initial residual = 6.8532819e-06, Final residual = 5.4498353e-07, No Iterations 17
time step continuity errors : sum local = 6.9792021e-08, global = -4.0173166e-09, cumulative = 2.3411398e-05
smoothSolver:  Solving for nuTilda, Initial residual = 4.5545501e-05, Final residual = 3.7718661e-06, No Iterations 2
ExecutionTime = 2224.01 s  ClockTime = 2225 s

Time = 4990

smoothSolver:  Solving for Ux, Initial residual = 1.4457055e-05, Final residual = 1.2005448e-06, No Iterations 2
smoothSolver:  Solving for Uy, Initial residual = 5.0931704e-05, Final residual = 2.6141885e-07, No Iterations 2
GAMG:  Solving for p, Initial residual = 6.8117725e-06, Final residual = 6.652609e-07, No Iterations 15
time step continuity errors : sum local = 8.5213669e-08, global = -5.318341e-09, cumulative = 2.3406079e-05
smoothSolver:  Solving for nuTilda, Initial residual = 4.5525629e-05, Final residual = 3.7702208e-06, No Iterations 2
ExecutionTime = 2224.35 s  ClockTime = 2225 s

Time = 4991

smoothSolver:  Solving for Ux, Initial residual = 1.4453156e-05, Final residual = 1.2002268e-06, No Iterations 2
smoothSolver:  Solving for Uy, Initial residual = 5.0881388e-05, Final residual = 2.6147959e-07, No Iterations 2
GAMG:  Solving for p, Initial residual = 6.8483534e-06, Final residual = 6.7334236e-07, No Iterations 15
time step continuity errors : sum local = 8.6267104e-08, global = -4.3494755e-09, cumulative = 2.340173e-05
smoothSolver:  Solving for nuTilda, Initial residual = 4.550577e-05, Final residual = 3.7685765e-06, No Iterations 2
ExecutionTime = 2224.7 s  ClockTime = 2226 s

Time = 4992

smoothSolver:  Solving for Ux, Initial residual = 1.4449302e-05, Final residual = 1.1999087e-06, No Iterations 2
smoothSolver:  Solving for Uy, Initial residual = 5.0853938e-05, Final residual = 2.6148821e-07, No Iterations 2
GAMG:  Solving for p, Initial residual = 6.8905375e-06, Final residual = 5.3864825e-07, No Iterations 17
time step continuity errors : sum local = 6.9025339e-08, global = -3.1480748e-09, cumulative = 2.3398582e-05
smoothSolver:  Solving for nuTilda, Initial residual = 4.5485924e-05, Final residual = 3.7669334e-06, No Iterations 2
ExecutionTime = 2225.08 s  ClockTime = 2226 s

Time = 4993

smoothSolver:  Solving for Ux, Initial residual = 1.4445507e-05, Final residual = 1.1995907e-06, No Iterations 2
smoothSolver:  Solving for Uy, Initial residual = 5.0866429e-05, Final residual = 2.6136594e-07, No Iterations 2
GAMG:  Solving for p, Initial residual = 6.8392135e-06, Final residual = 5.4373312e-07, No Iterations 17
time step continuity errors : sum local = 6.9692508e-08, global = -4.0090395e-09, cumulative = 2.3394573e-05
smoothSolver:  Solving for nuTilda, Initial residual = 4.5466091e-05, Final residual = 3.7652913e-06, No Iterations 2
ExecutionTime = 2225.45 s  ClockTime = 2226 s

Time = 4994

smoothSolver:  Solving for Ux, Initial residual = 1.4441669e-05, Final residual = 1.1992728e-06, No Iterations 2
smoothSolver:  Solving for Uy, Initial residual = 5.0852667e-05, Final residual = 2.6130142e-07, No Iterations 2
GAMG:  Solving for p, Initial residual = 6.7983008e-06, Final residual = 6.6444531e-07, No Iterations 15
time step continuity errors : sum local = 8.5183273e-08, global = -5.3125796e-09, cumulative = 2.338926e-05
smoothSolver:  Solving for nuTilda, Initial residual = 4.5446271e-05, Final residual = 3.7636503e-06, No Iterations 2
ExecutionTime = 2225.81 s  ClockTime = 2227 s

Time = 4995

smoothSolver:  Solving for Ux, Initial residual = 1.4437776e-05, Final residual = 1.1989551e-06, No Iterations 2
smoothSolver:  Solving for Uy, Initial residual = 5.0802739e-05, Final residual = 2.6136008e-07, No Iterations 2
GAMG:  Solving for p, Initial residual = 6.8353618e-06, Final residual = 6.7256673e-07, No Iterations 15
time step continuity errors : sum local = 8.6242701e-08, global = -4.3441352e-09, cumulative = 2.3384916e-05
smoothSolver:  Solving for nuTilda, Initial residual = 4.5426464e-05, Final residual = 3.7620103e-06, No Iterations 2
ExecutionTime = 2226.16 s  ClockTime = 2227 s

Time = 4996

smoothSolver:  Solving for Ux, Initial residual = 1.4433927e-05, Final residual = 1.1986374e-06, No Iterations 2
smoothSolver:  Solving for Uy, Initial residual = 5.0775661e-05, Final residual = 2.6136815e-07, No Iterations 2
GAMG:  Solving for p, Initial residual = 6.8772006e-06, Final residual = 5.3761497e-07, No Iterations 17
time step continuity errors : sum local = 6.8952852e-08, global = -3.1391763e-09, cumulative = 2.3381777e-05
smoothSolver:  Solving for nuTilda, Initial residual = 4.540667e-05, Final residual = 3.7603715e-06, No Iterations 2
ExecutionTime = 2226.53 s  ClockTime = 2228 s

Time = 4997

smoothSolver:  Solving for Ux, Initial residual = 1.4430136e-05, Final residual = 1.1983198e-06, No Iterations 2
smoothSolver:  Solving for Uy, Initial residual = 5.0788257e-05, Final residual = 2.6124672e-07, No Iterations 2
GAMG:  Solving for p, Initial residual = 6.8252985e-06, Final residual = 5.4226835e-07, No Iterations 17
time step continuity errors : sum local = 6.9565186e-08, global = -3.9937509e-09, cumulative = 2.3377783e-05
smoothSolver:  Solving for nuTilda, Initial residual = 4.5386889e-05, Final residual = 3.7587337e-06, No Iterations 2
ExecutionTime = 2226.91 s  ClockTime = 2228 s

Time = 4998

smoothSolver:  Solving for Ux, Initial residual = 1.4426303e-05, Final residual = 1.1980023e-06, No Iterations 2
smoothSolver:  Solving for Uy, Initial residual = 5.0774367e-05, Final residual = 2.6118328e-07, No Iterations 2
GAMG:  Solving for p, Initial residual = 6.7842066e-06, Final residual = 6.6260071e-07, No Iterations 15
time step continuity errors : sum local = 8.5020601e-08, global = -5.2924668e-09, cumulative = 2.3372491e-05
smoothSolver:  Solving for nuTilda, Initial residual = 4.5367121e-05, Final residual = 3.7570969e-06, No Iterations 2
ExecutionTime = 2227.27 s  ClockTime = 2228 s

Time = 4999

smoothSolver:  Solving for Ux, Initial residual = 1.4422415e-05, Final residual = 1.1976851e-06, No Iterations 2
smoothSolver:  Solving for Uy, Initial residual = 5.0724311e-05, Final residual = 2.6124229e-07, No Iterations 2
GAMG:  Solving for p, Initial residual = 6.8209843e-06, Final residual = 6.7090049e-07, No Iterations 15
time step continuity errors : sum local = 8.6103747e-08, global = -4.3267365e-09, cumulative = 2.3368164e-05
smoothSolver:  Solving for nuTilda, Initial residual = 4.5347366e-05, Final residual = 3.7554613e-06, No Iterations 2
ExecutionTime = 2227.62 s  ClockTime = 2229 s

Time = 5000

smoothSolver:  Solving for Ux, Initial residual = 1.441857e-05, Final residual = 1.1973678e-06, No Iterations 2
smoothSolver:  Solving for Uy, Initial residual = 5.069721e-05, Final residual = 2.6125035e-07, No Iterations 2
GAMG:  Solving for p, Initial residual = 6.8629421e-06, Final residual = 5.3639126e-07, No Iterations 17
time step continuity errors : sum local = 6.8855629e-08, global = -3.1239706e-09, cumulative = 2.336504e-05
smoothSolver:  Solving for nuTilda, Initial residual = 4.5327624e-05, Final residual = 3.7538267e-06, No Iterations 2
ExecutionTime = 2228.46 s  ClockTime = 2229 s

wallShearStress wallShearStress write:
    writing field wallShearStress
    min/max(topWall) = (-5.3996377e-09 -2.1114284e-06 0), (3.0970931e-08 -2.1707399e-08 0)
    min/max(bottomWall) = (-48.893795 -0.95689901 0), (-8.2415358 5.3173724e-09 0)
End

