/*---------------------------------------------------------------------------*\
| =========                 |                                                 |
| \\      /  F ield         | OpenFOAM: The Open Source CFD Toolbox           |
|  \\    /   O peration     | Version:  v1912                                 |
|   \\  /    A nd           | Website:  www.openfoam.com                      |
|    \\/     M anipulation  |                                                 |
\*---------------------------------------------------------------------------*/
Build  : _f3950763fe-20191219 OPENFOAM=1912
Arch   : "LSB;label=32;scalar=64"
Exec   : simpleFoam
Date   : Jun 07 2020
Time   : 11:20:15
Host   : mx
PID    : 8454
I/O    : uncollated
Case   : /home/max/OpenFOAM/max-v1912/run/turbulentFlatPlate_1_SA
nProcs : 1
trapFpe: Floating point exception trapping enabled (FOAM_SIGFPE).
fileModificationChecking : Monitoring run-time modified files using timeStampMaster (fileModificationSkew 10)
allowSystemOperations : Allowing user-supplied system call operations

// * * * * * * * * * * * * * * * * * * * * * * * * * * * * * * * * * * * * * //
Create time

Create mesh for time = 0


SIMPLE: convergence criteria
    field p	 tolerance 1e-05
    field U	 tolerance 1e-05
    field nuTilda	 tolerance 1e-05

Reading field p

Reading field U

Reading/calculating face flux field phi

Selecting incompressible transport model Newtonian
Selecting turbulence model type RAS
Selecting RAS turbulence model SpalartAllmaras
--> FOAM Warning : 
    From function Foam::Field<Type>::Field(const Foam::word&, const Foam::dictionary&, Foam::label) [with Type = double; Foam::label = int]
    in file /home/max/OpenFOAM/OpenFOAM-v1912/src/OpenFOAM/lnInclude/Field.C at line 239
    Reading "/home/max/OpenFOAM/max-v1912/run/turbulentFlatPlate_1_SA/0/nuTilda"
    Expected keyword 'uniform' or 'nonuniform', assuming deprecated Field format from Foam version 2.0.
Selecting patchDistMethod meshWave
RAS
{
    RASModel        SpalartAllmaras;
    turbulence      on;
    printCoeffs     on;
    sigmaNut        0.66666;
    kappa           0.41;
    Cb1             0.1355;
    Cb2             0.622;
    Cw2             0.3;
    Cw3             2;
    Cv1             7.1;
    Cs              0.3;
}

No MRF models present

No finite volume options present

Starting time loop

Time = 1

smoothSolver:  Solving for Ux, Initial residual = 0.99999998, Final residual = 0.0096299285, No Iterations 2
smoothSolver:  Solving for Uy, Initial residual = 1, Final residual = 0.0074076651, No Iterations 2
GAMG:  Solving for p, Initial residual = 1, Final residual = 0.094883867, No Iterations 103
time step continuity errors : sum local = 2.8193725e-05, global = 3.7518806e-06, cumulative = 3.7518806e-06
smoothSolver:  Solving for nuTilda, Initial residual = 1, Final residual = 0.004425897, No Iterations 2
ExecutionTime = 2.36 s  ClockTime = 2 s

Time = 2

smoothSolver:  Solving for Ux, Initial residual = 0.046532614, Final residual = 0.00085832517, No Iterations 2
smoothSolver:  Solving for Uy, Initial residual = 0.48905187, Final residual = 0.0005843704, No Iterations 2
GAMG:  Solving for p, Initial residual = 0.0048754787, Final residual = 0.0004740078, No Iterations 71
time step continuity errors : sum local = 4.5982755e-05, global = 6.4076303e-06, cumulative = 1.0159511e-05
smoothSolver:  Solving for nuTilda, Initial residual = 0.091307862, Final residual = 0.0020148817, No Iterations 2
ExecutionTime = 3.41 s  ClockTime = 3 s

Time = 3

smoothSolver:  Solving for Ux, Initial residual = 0.017713336, Final residual = 0.0005372469, No Iterations 2
smoothSolver:  Solving for Uy, Initial residual = 0.17724403, Final residual = 0.00021594988, No Iterations 2
GAMG:  Solving for p, Initial residual = 0.0050834767, Final residual = 0.00050008, No Iterations 69
time step continuity errors : sum local = 6.8710414e-05, global = -1.0360383e-05, cumulative = -2.0087236e-07
smoothSolver:  Solving for nuTilda, Initial residual = 0.032293205, Final residual = 0.0016982678, No Iterations 2
ExecutionTime = 4.43 s  ClockTime = 4 s

Time = 4

smoothSolver:  Solving for Ux, Initial residual = 0.0096060823, Final residual = 0.00040301635, No Iterations 2
smoothSolver:  Solving for Uy, Initial residual = 0.063133538, Final residual = 7.9944361e-05, No Iterations 2
GAMG:  Solving for p, Initial residual = 0.008470964, Final residual = 0.00080251047, No Iterations 81
time step continuity errors : sum local = 6.7898416e-05, global = -9.9473025e-06, cumulative = -1.0148175e-05
smoothSolver:  Solving for nuTilda, Initial residual = 0.025477853, Final residual = 0.0011485177, No Iterations 2
ExecutionTime = 5.59 s  ClockTime = 6 s

Time = 5

smoothSolver:  Solving for Ux, Initial residual = 0.0060668252, Final residual = 0.00032239243, No Iterations 2
smoothSolver:  Solving for Uy, Initial residual = 0.013593294, Final residual = 3.1434794e-05, No Iterations 2
GAMG:  Solving for p, Initial residual = 0.088714421, Final residual = 0.0086595919, No Iterations 64
time step continuity errors : sum local = 6.8723686e-05, global = 7.1406748e-06, cumulative = -3.0075001e-06
smoothSolver:  Solving for nuTilda, Initial residual = 0.017187178, Final residual = 0.0010679318, No Iterations 2
ExecutionTime = 6.57 s  ClockTime = 7 s

Time = 6

smoothSolver:  Solving for Ux, Initial residual = 0.0046190801, Final residual = 0.00026946793, No Iterations 2
smoothSolver:  Solving for Uy, Initial residual = 0.011157181, Final residual = 2.0401718e-05, No Iterations 2
GAMG:  Solving for p, Initial residual = 0.040717921, Final residual = 0.0037756571, No Iterations 61
time step continuity errors : sum local = 6.6258249e-05, global = 9.5470931e-06, cumulative = 6.539593e-06
smoothSolver:  Solving for nuTilda, Initial residual = 0.016325371, Final residual = 0.00091432033, No Iterations 2
ExecutionTime = 7.49 s  ClockTime = 7 s

Time = 7

smoothSolver:  Solving for Ux, Initial residual = 0.0037046182, Final residual = 0.00023117434, No Iterations 2
smoothSolver:  Solving for Uy, Initial residual = 0.014866934, Final residual = 1.744308e-05, No Iterations 2
GAMG:  Solving for p, Initial residual = 0.041296958, Final residual = 0.0038374774, No Iterations 63
time step continuity errors : sum local = 6.6667774e-05, global = 9.7768872e-06, cumulative = 1.631648e-05
smoothSolver:  Solving for nuTilda, Initial residual = 0.013128787, Final residual = 0.00088122569, No Iterations 2
ExecutionTime = 8.44 s  ClockTime = 8 s

Time = 8

smoothSolver:  Solving for Ux, Initial residual = 0.0032902713, Final residual = 0.00020285769, No Iterations 2
smoothSolver:  Solving for Uy, Initial residual = 0.030002231, Final residual = 3.2750008e-05, No Iterations 2
GAMG:  Solving for p, Initial residual = 0.013653973, Final residual = 0.0013281579, No Iterations 44
time step continuity errors : sum local = 7.3424734e-05, global = 6.1643106e-06, cumulative = 2.2480791e-05
smoothSolver:  Solving for nuTilda, Initial residual = 0.012944205, Final residual = 0.00081524963, No Iterations 2
ExecutionTime = 9.16 s  ClockTime = 9 s

Time = 9

smoothSolver:  Solving for Ux, Initial residual = 0.0028644273, Final residual = 0.00018073773, No Iterations 2
smoothSolver:  Solving for Uy, Initial residual = 0.027915474, Final residual = 3.2265329e-05, No Iterations 2
GAMG:  Solving for p, Initial residual = 0.013053212, Final residual = 0.0012722881, No Iterations 49
time step continuity errors : sum local = 7.393574e-05, global = -1.1288659e-05, cumulative = 1.1192131e-05
smoothSolver:  Solving for nuTilda, Initial residual = 0.011432701, Final residual = 0.00080048627, No Iterations 2
ExecutionTime = 9.93 s  ClockTime = 10 s

Time = 10

smoothSolver:  Solving for Ux, Initial residual = 0.0024299514, Final residual = 0.00016317848, No Iterations 2
smoothSolver:  Solving for Uy, Initial residual = 0.017728906, Final residual = 2.499703e-05, No Iterations 2
GAMG:  Solving for p, Initial residual = 0.022218323, Final residual = 0.0021021269, No Iterations 51
time step continuity errors : sum local = 7.1298754e-05, global = -1.0603137e-05, cumulative = 5.8899466e-07
smoothSolver:  Solving for nuTilda, Initial residual = 0.011531435, Final residual = 0.00076753774, No Iterations 2
ExecutionTime = 10.73 s  ClockTime = 11 s

Time = 11

smoothSolver:  Solving for Ux, Initial residual = 0.002093122, Final residual = 0.0001487972, No Iterations 2
smoothSolver:  Solving for Uy, Initial residual = 0.0094417262, Final residual = 1.7692059e-05, No Iterations 2
GAMG:  Solving for p, Initial residual = 0.072190316, Final residual = 0.006870675, No Iterations 39
time step continuity errors : sum local = 7.6500142e-05, global = 5.400575e-06, cumulative = 5.9895697e-06
smoothSolver:  Solving for nuTilda, Initial residual = 0.010529191, Final residual = 0.00075525672, No Iterations 2
ExecutionTime = 11.39 s  ClockTime = 11 s

Time = 12

smoothSolver:  Solving for Ux, Initial residual = 0.0018931456, Final residual = 0.00013689457, No Iterations 2
smoothSolver:  Solving for Uy, Initial residual = 0.0077554734, Final residual = 1.270158e-05, No Iterations 2
GAMG:  Solving for p, Initial residual = 0.074694055, Final residual = 0.0069824265, No Iterations 42
time step continuity errors : sum local = 7.2143022e-05, global = -8.2524271e-06, cumulative = -2.2628574e-06
smoothSolver:  Solving for nuTilda, Initial residual = 0.010529436, Final residual = 0.0007337396, No Iterations 2
ExecutionTime = 12.09 s  ClockTime = 12 s

Time = 13

smoothSolver:  Solving for Ux, Initial residual = 0.0017779656, Final residual = 0.00012684377, No Iterations 2
smoothSolver:  Solving for Uy, Initial residual = 0.011455013, Final residual = 1.3522132e-05, No Iterations 2
GAMG:  Solving for p, Initial residual = 0.033357861, Final residual = 0.0033294519, No Iterations 38
time step continuity errors : sum local = 7.7598397e-05, global = -8.0084218e-06, cumulative = -1.0271279e-05
smoothSolver:  Solving for nuTilda, Initial residual = 0.0098964811, Final residual = 0.00072263267, No Iterations 2
ExecutionTime = 12.74 s  ClockTime = 13 s

Time = 14

smoothSolver:  Solving for Ux, Initial residual = 0.0016790165, Final residual = 0.00011829207, No Iterations 2
smoothSolver:  Solving for Uy, Initial residual = 0.013589753, Final residual = 1.4930858e-05, No Iterations 2
GAMG:  Solving for p, Initial residual = 0.023915521, Final residual = 0.0022484754, No Iterations 27
time step continuity errors : sum local = 7.6751266e-05, global = 1.4095166e-07, cumulative = -1.0130328e-05
smoothSolver:  Solving for nuTilda, Initial residual = 0.0099263757, Final residual = 0.00071097275, No Iterations 2
ExecutionTime = 13.24 s  ClockTime = 13 s

Time = 15

smoothSolver:  Solving for Ux, Initial residual = 0.0015565026, Final residual = 0.00011089291, No Iterations 2
smoothSolver:  Solving for Uy, Initial residual = 0.01283542, Final residual = 1.4139522e-05, No Iterations 2
GAMG:  Solving for p, Initial residual = 0.023847757, Final residual = 0.0023242967, No Iterations 32
time step continuity errors : sum local = 7.6375564e-05, global = 9.1956568e-06, cumulative = -9.3467072e-07
smoothSolver:  Solving for nuTilda, Initial residual = 0.0095828383, Final residual = 0.00070464121, No Iterations 2
ExecutionTime = 13.81 s  ClockTime = 14 s

Time = 16

smoothSolver:  Solving for Ux, Initial residual = 0.0014293833, Final residual = 0.00010444759, No Iterations 2
smoothSolver:  Solving for Uy, Initial residual = 0.010612887, Final residual = 1.3233002e-05, No Iterations 2
GAMG:  Solving for p, Initial residual = 0.031934671, Final residual = 0.0030798398, No Iterations 21
time step continuity errors : sum local = 7.5959292e-05, global = 9.8025433e-07, cumulative = 4.5583605e-08
smoothSolver:  Solving for nuTilda, Initial residual = 0.0094780751, Final residual = 0.00069620855, No Iterations 2
ExecutionTime = 14.24 s  ClockTime = 14 s

Time = 17

smoothSolver:  Solving for Ux, Initial residual = 0.0013227154, Final residual = 9.8769868e-05, No Iterations 2
smoothSolver:  Solving for Uy, Initial residual = 0.0081163717, Final residual = 1.1281297e-05, No Iterations 2
GAMG:  Solving for p, Initial residual = 0.045761945, Final residual = 0.0042063839, No Iterations 24
time step continuity errors : sum local = 7.3041161e-05, global = 1.2967846e-06, cumulative = 1.3423682e-06
smoothSolver:  Solving for nuTilda, Initial residual = 0.0093005603, Final residual = 0.00069164771, No Iterations 2
ExecutionTime = 14.7 s  ClockTime = 15 s

Time = 18

smoothSolver:  Solving for Ux, Initial residual = 0.0012497264, Final residual = 9.374594e-05, No Iterations 2
smoothSolver:  Solving for Uy, Initial residual = 0.0072641941, Final residual = 9.2973357e-06, No Iterations 2
GAMG:  Solving for p, Initial residual = 0.044957836, Final residual = 0.0041679379, No Iterations 22
time step continuity errors : sum local = 7.2430981e-05, global = -6.361389e-07, cumulative = 7.0622926e-07
smoothSolver:  Solving for nuTilda, Initial residual = 0.0092315293, Final residual = 0.00068774702, No Iterations 2
ExecutionTime = 15.14 s  ClockTime = 15 s

Time = 19

smoothSolver:  Solving for Ux, Initial residual = 0.0011948106, Final residual = 8.9267007e-05, No Iterations 2
smoothSolver:  Solving for Uy, Initial residual = 0.0079288136, Final residual = 9.1871396e-06, No Iterations 2
GAMG:  Solving for p, Initial residual = 0.03677461, Final residual = 0.0032736549, No Iterations 25
time step continuity errors : sum local = 6.8809538e-05, global = -1.5978963e-06, cumulative = -8.9166706e-07
smoothSolver:  Solving for nuTilda, Initial residual = 0.0090751548, Final residual = 0.00068454032, No Iterations 2
ExecutionTime = 15.62 s  ClockTime = 16 s

Time = 20

smoothSolver:  Solving for Ux, Initial residual = 0.0011437754, Final residual = 8.5254391e-05, No Iterations 2
smoothSolver:  Solving for Uy, Initial residual = 0.0085130827, Final residual = 9.2374546e-06, No Iterations 2
GAMG:  Solving for p, Initial residual = 0.03258279, Final residual = 0.0029784593, No Iterations 22
time step continuity errors : sum local = 7.1159361e-05, global = 4.3557651e-07, cumulative = -4.5609055e-07
smoothSolver:  Solving for nuTilda, Initial residual = 0.0090493235, Final residual = 0.00068250214, No Iterations 2
ExecutionTime = 16.06 s  ClockTime = 16 s

Time = 21

smoothSolver:  Solving for Ux, Initial residual = 0.0010893652, Final residual = 8.163431e-05, No Iterations 2
smoothSolver:  Solving for Uy, Initial residual = 0.008432039, Final residual = 8.600551e-06, No Iterations 2
GAMG:  Solving for p, Initial residual = 0.033221975, Final residual = 0.0028618583, No Iterations 23
time step continuity errors : sum local = 6.7416529e-05, global = 5.2143265e-07, cumulative = 6.5342106e-08
smoothSolver:  Solving for nuTilda, Initial residual = 0.0089620252, Final residual = 0.00068176884, No Iterations 2
ExecutionTime = 16.51 s  ClockTime = 17 s

Time = 22

smoothSolver:  Solving for Ux, Initial residual = 0.0010365297, Final residual = 7.835262e-05, No Iterations 2
smoothSolver:  Solving for Uy, Initial residual = 0.0077284273, Final residual = 8.113225e-06, No Iterations 2
GAMG:  Solving for p, Initial residual = 0.035294565, Final residual = 0.0030050337, No Iterations 16
time step continuity errors : sum local = 6.4474204e-05, global = 4.9524681e-07, cumulative = 5.6058892e-07
smoothSolver:  Solving for nuTilda, Initial residual = 0.0089230358, Final residual = 0.00068095006, No Iterations 2
ExecutionTime = 16.88 s  ClockTime = 17 s

Time = 23

smoothSolver:  Solving for Ux, Initial residual = 0.00098928204, Final residual = 7.5363757e-05, No Iterations 2
smoothSolver:  Solving for Uy, Initial residual = 0.0068695914, Final residual = 7.5514875e-06, No Iterations 2
GAMG:  Solving for p, Initial residual = 0.039149275, Final residual = 0.0035940009, No Iterations 14
time step continuity errors : sum local = 6.9585178e-05, global = 1.3804264e-06, cumulative = 1.9410153e-06
smoothSolver:  Solving for nuTilda, Initial residual = 0.0088942224, Final residual = 0.00068163441, No Iterations 2
ExecutionTime = 17.22 s  ClockTime = 17 s

Time = 24

smoothSolver:  Solving for Ux, Initial residual = 0.00094980634, Final residual = 7.2633775e-05, No Iterations 2
smoothSolver:  Solving for Uy, Initial residual = 0.0063365262, Final residual = 6.8462227e-06, No Iterations 2
GAMG:  Solving for p, Initial residual = 0.040421552, Final residual = 0.0035569496, No Iterations 20
time step continuity errors : sum local = 6.6757569e-05, global = 1.0286653e-06, cumulative = 2.9696806e-06
smoothSolver:  Solving for nuTilda, Initial residual = 0.0088588055, Final residual = 0.00068238238, No Iterations 2
ExecutionTime = 17.63 s  ClockTime = 18 s

Time = 25

smoothSolver:  Solving for Ux, Initial residual = 0.00091558647, Final residual = 7.0131156e-05, No Iterations 2
smoothSolver:  Solving for Uy, Initial residual = 0.0061722527, Final residual = 6.3895224e-06, No Iterations 2
GAMG:  Solving for p, Initial residual = 0.039334467, Final residual = 0.0035437665, No Iterations 21
time step continuity errors : sum local = 6.7896512e-05, global = 2.942861e-07, cumulative = 3.2639667e-06
smoothSolver:  Solving for nuTilda, Initial residual = 0.0088653439, Final residual = 0.00068401507, No Iterations 2
ExecutionTime = 18.06 s  ClockTime = 18 s

Time = 26

smoothSolver:  Solving for Ux, Initial residual = 0.00088379802, Final residual = 6.7829084e-05, No Iterations 2
smoothSolver:  Solving for Uy, Initial residual = 0.0062023865, Final residual = 6.1990039e-06, No Iterations 2
GAMG:  Solving for p, Initial residual = 0.037270093, Final residual = 0.0033922384, No Iterations 14
time step continuity errors : sum local = 6.6060306e-05, global = -1.4465412e-07, cumulative = 3.1193125e-06
smoothSolver:  Solving for nuTilda, Initial residual = 0.0088455059, Final residual = 0.00068606999, No Iterations 2
ExecutionTime = 18.4 s  ClockTime = 18 s

Time = 27

smoothSolver:  Solving for Ux, Initial residual = 0.00085393112, Final residual = 6.5704106e-05, No Iterations 2
smoothSolver:  Solving for Uy, Initial residual = 0.0062399976, Final residual = 5.9658946e-06, No Iterations 2
GAMG:  Solving for p, Initial residual = 0.037786194, Final residual = 0.0034212638, No Iterations 21
time step continuity errors : sum local = 6.6559573e-05, global = -2.2050785e-07, cumulative = 2.8988047e-06
smoothSolver:  Solving for nuTilda, Initial residual = 0.0088655926, Final residual = 0.00068867919, No Iterations 2
ExecutionTime = 18.83 s  ClockTime = 19 s

Time = 28

smoothSolver:  Solving for Ux, Initial residual = 0.00082621793, Final residual = 6.3736056e-05, No Iterations 2
smoothSolver:  Solving for Uy, Initial residual = 0.0061050893, Final residual = 5.6426889e-06, No Iterations 2
GAMG:  Solving for p, Initial residual = 0.037683847, Final residual = 0.003689929, No Iterations 12
time step continuity errors : sum local = 7.0603565e-05, global = -9.6034263e-08, cumulative = 2.8027704e-06
smoothSolver:  Solving for nuTilda, Initial residual = 0.0088656055, Final residual = 0.00069156694, No Iterations 2
ExecutionTime = 19.14 s  ClockTime = 19 s

Time = 29

smoothSolver:  Solving for Ux, Initial residual = 0.00080040091, Final residual = 6.1908461e-05, No Iterations 2
smoothSolver:  Solving for Uy, Initial residual = 0.0057422321, Final residual = 5.3347838e-06, No Iterations 2
GAMG:  Solving for p, Initial residual = 0.038611264, Final residual = 0.0037835229, No Iterations 14
time step continuity errors : sum local = 7.0255259e-05, global = 3.031289e-07, cumulative = 3.1058993e-06
smoothSolver:  Solving for nuTilda, Initial residual = 0.0088928403, Final residual = 0.00069503088, No Iterations 2
ExecutionTime = 19.48 s  ClockTime = 19 s

Time = 30

smoothSolver:  Solving for Ux, Initial residual = 0.00077671894, Final residual = 6.0208062e-05, No Iterations 2
smoothSolver:  Solving for Uy, Initial residual = 0.0054161257, Final residual = 5.08596e-06, No Iterations 2
GAMG:  Solving for p, Initial residual = 0.038970264, Final residual = 0.003715371, No Iterations 18
time step continuity errors : sum local = 6.7680916e-05, global = 7.7028904e-07, cumulative = 3.8761884e-06
smoothSolver:  Solving for nuTilda, Initial residual = 0.0089097357, Final residual = 0.00069865728, No Iterations 2
ExecutionTime = 19.87 s  ClockTime = 20 s

Time = 31

smoothSolver:  Solving for Ux, Initial residual = 0.00075462295, Final residual = 5.8622228e-05, No Iterations 2
smoothSolver:  Solving for Uy, Initial residual = 0.0052240134, Final residual = 4.8433911e-06, No Iterations 2
GAMG:  Solving for p, Initial residual = 0.039189767, Final residual = 0.0034101999, No Iterations 17
time step continuity errors : sum local = 6.1384484e-05, global = 9.4896925e-07, cumulative = 4.8251576e-06
smoothSolver:  Solving for nuTilda, Initial residual = 0.008945115, Final residual = 0.00070289439, No Iterations 2
ExecutionTime = 20.25 s  ClockTime = 20 s

Time = 32

smoothSolver:  Solving for Ux, Initial residual = 0.0007337339, Final residual = 5.7139705e-05, No Iterations 2
smoothSolver:  Solving for Uy, Initial residual = 0.0051366459, Final residual = 4.6643604e-06, No Iterations 2
GAMG:  Solving for p, Initial residual = 0.038090926, Final residual = 0.0033647281, No Iterations 12
time step continuity errors : sum local = 5.9880143e-05, global = 7.7409451e-07, cumulative = 5.5992521e-06
smoothSolver:  Solving for nuTilda, Initial residual = 0.0089753038, Final residual = 0.00070718985, No Iterations 2
ExecutionTime = 20.56 s  ClockTime = 21 s

Time = 33

smoothSolver:  Solving for Ux, Initial residual = 0.00071411394, Final residual = 5.5750813e-05, No Iterations 2
smoothSolver:  Solving for Uy, Initial residual = 0.0050765989, Final residual = 4.4863148e-06, No Iterations 2
GAMG:  Solving for p, Initial residual = 0.038627141, Final residual = 0.0038113379, No Iterations 17
time step continuity errors : sum local = 6.7057508e-05, global = 1.7586706e-06, cumulative = 7.3579227e-06
smoothSolver:  Solving for nuTilda, Initial residual = 0.0090195877, Final residual = 0.00071212447, No Iterations 2
ExecutionTime = 20.94 s  ClockTime = 21 s

Time = 34

smoothSolver:  Solving for Ux, Initial residual = 0.00069619803, Final residual = 5.4446727e-05, No Iterations 2
smoothSolver:  Solving for Uy, Initial residual = 0.0049781751, Final residual = 4.2748578e-06, No Iterations 2
GAMG:  Solving for p, Initial residual = 0.037680686, Final residual = 0.0031718477, No Iterations 12
time step continuity errors : sum local = 5.5409526e-05, global = 7.7349224e-07, cumulative = 8.1314149e-06
smoothSolver:  Solving for nuTilda, Initial residual = 0.009060022, Final residual = 0.00071702353, No Iterations 2
ExecutionTime = 21.26 s  ClockTime = 21 s

Time = 35

smoothSolver:  Solving for Ux, Initial residual = 0.0006795012, Final residual = 5.3220138e-05, No Iterations 2
smoothSolver:  Solving for Uy, Initial residual = 0.0048235015, Final residual = 4.0678013e-06, No Iterations 2
GAMG:  Solving for p, Initial residual = 0.037886487, Final residual = 0.003430824, No Iterations 14
time step continuity errors : sum local = 5.9038511e-05, global = 7.810288e-07, cumulative = 8.9124437e-06
smoothSolver:  Solving for nuTilda, Initial residual = 0.0091135919, Final residual = 0.00072259075, No Iterations 2
ExecutionTime = 21.6 s  ClockTime = 22 s

Time = 36

smoothSolver:  Solving for Ux, Initial residual = 0.00066387918, Final residual = 5.2064834e-05, No Iterations 2
smoothSolver:  Solving for Uy, Initial residual = 0.0046536823, Final residual = 3.9482329e-06, No Iterations 2
GAMG:  Solving for p, Initial residual = 0.038181388, Final residual = 0.0034506926, No Iterations 15
time step continuity errors : sum local = 5.8426811e-05, global = 9.0237084e-08, cumulative = 9.0026808e-06
smoothSolver:  Solving for nuTilda, Initial residual = 0.0091625769, Final residual = 0.00072808572, No Iterations 2
ExecutionTime = 21.97 s  ClockTime = 22 s

Time = 37

smoothSolver:  Solving for Ux, Initial residual = 0.0006491976, Final residual = 5.0974916e-05, No Iterations 2
smoothSolver:  Solving for Uy, Initial residual = 0.0045154074, Final residual = 3.8102448e-06, No Iterations 2
GAMG:  Solving for p, Initial residual = 0.037454134, Final residual = 0.0033037588, No Iterations 12
time step continuity errors : sum local = 5.5132827e-05, global = 1.4087935e-07, cumulative = 9.1435602e-06
smoothSolver:  Solving for nuTilda, Initial residual = 0.0092260875, Final residual = 0.00073427125, No Iterations 2
ExecutionTime = 22.28 s  ClockTime = 22 s

Time = 38

smoothSolver:  Solving for Ux, Initial residual = 0.00063520003, Final residual = 4.9945019e-05, No Iterations 2
smoothSolver:  Solving for Uy, Initial residual = 0.0043932939, Final residual = 3.6715768e-06, No Iterations 2
GAMG:  Solving for p, Initial residual = 0.038109397, Final residual = 0.0035623257, No Iterations 15
time step continuity errors : sum local = 5.8747034e-05, global = 5.9698173e-08, cumulative = 9.2032583e-06
smoothSolver:  Solving for nuTilda, Initial residual = 0.0092826194, Final residual = 0.00074035438, No Iterations 2
ExecutionTime = 22.63 s  ClockTime = 23 s

Time = 39

smoothSolver:  Solving for Ux, Initial residual = 0.00062190513, Final residual = 4.8970169e-05, No Iterations 2
smoothSolver:  Solving for Uy, Initial residual = 0.0042996775, Final residual = 3.557003e-06, No Iterations 2
GAMG:  Solving for p, Initial residual = 0.036946189, Final residual = 0.0033453166, No Iterations 10
time step continuity errors : sum local = 5.468857e-05, global = 1.8335539e-07, cumulative = 9.3866137e-06
smoothSolver:  Solving for nuTilda, Initial residual = 0.0093555476, Final residual = 0.0007471069, No Iterations 2
ExecutionTime = 22.93 s  ClockTime = 23 s

Time = 40

smoothSolver:  Solving for Ux, Initial residual = 0.00060920003, Final residual = 4.804609e-05, No Iterations 2
smoothSolver:  Solving for Uy, Initial residual = 0.0042323961, Final residual = 3.4522738e-06, No Iterations 2
GAMG:  Solving for p, Initial residual = 0.037033636, Final residual = 0.0034095953, No Iterations 14
time step continuity errors : sum local = 5.5236664e-05, global = 5.0695431e-07, cumulative = 9.893568e-06
smoothSolver:  Solving for nuTilda, Initial residual = 0.0094187296, Final residual = 0.00075370645, No Iterations 2
ExecutionTime = 23.27 s  ClockTime = 23 s

Time = 41

smoothSolver:  Solving for Ux, Initial residual = 0.00059725599, Final residual = 4.7168822e-05, No Iterations 2
smoothSolver:  Solving for Uy, Initial residual = 0.004165602, Final residual = 3.3368253e-06, No Iterations 2
GAMG:  Solving for p, Initial residual = 0.037056549, Final residual = 0.0034850407, No Iterations 15
time step continuity errors : sum local = 5.6066227e-05, global = 8.4180173e-07, cumulative = 1.073537e-05
smoothSolver:  Solving for nuTilda, Initial residual = 0.0094985541, Final residual = 0.00076089207, No Iterations 2
ExecutionTime = 23.63 s  ClockTime = 24 s

Time = 42

smoothSolver:  Solving for Ux, Initial residual = 0.00058602603, Final residual = 4.6334939e-05, No Iterations 2
smoothSolver:  Solving for Uy, Initial residual = 0.0040876517, Final residual = 3.2133153e-06, No Iterations 2
GAMG:  Solving for p, Initial residual = 0.036084961, Final residual = 0.0035126692, No Iterations 10
time step continuity errors : sum local = 5.6082862e-05, global = 8.5748908e-07, cumulative = 1.1592859e-05
smoothSolver:  Solving for nuTilda, Initial residual = 0.0095701765, Final residual = 0.00076810074, No Iterations 2
ExecutionTime = 23.92 s  ClockTime = 24 s

Time = 43

smoothSolver:  Solving for Ux, Initial residual = 0.00057545273, Final residual = 4.5541729e-05, No Iterations 2
smoothSolver:  Solving for Uy, Initial residual = 0.0039951313, Final residual = 3.1016482e-06, No Iterations 2
GAMG:  Solving for p, Initial residual = 0.036463049, Final residual = 0.0033827496, No Iterations 15
time step continuity errors : sum local = 5.356159e-05, global = 1.1861644e-06, cumulative = 1.2779023e-05
smoothSolver:  Solving for nuTilda, Initial residual = 0.0096551408, Final residual = 0.00077566584, No Iterations 2
ExecutionTime = 24.28 s  ClockTime = 24 s

Time = 44

smoothSolver:  Solving for Ux, Initial residual = 0.00056544063, Final residual = 4.4786084e-05, No Iterations 2
smoothSolver:  Solving for Uy, Initial residual = 0.0038909161, Final residual = 3.011623e-06, No Iterations 2
GAMG:  Solving for p, Initial residual = 0.035313514, Final residual = 0.0032177574, No Iterations 10
time step continuity errors : sum local = 5.029825e-05, global = 6.038825e-07, cumulative = 1.3382906e-05
smoothSolver:  Solving for nuTilda, Initial residual = 0.0097358418, Final residual = 0.00078349724, No Iterations 2
ExecutionTime = 24.58 s  ClockTime = 25 s

Time = 45

smoothSolver:  Solving for Ux, Initial residual = 0.00055578783, Final residual = 4.4065234e-05, No Iterations 2
smoothSolver:  Solving for Uy, Initial residual = 0.0037750303, Final residual = 2.9424578e-06, No Iterations 2
GAMG:  Solving for p, Initial residual = 0.035732261, Final residual = 0.0033920798, No Iterations 12
time step continuity errors : sum local = 5.2041655e-05, global = 4.3997154e-07, cumulative = 1.3822877e-05
smoothSolver:  Solving for nuTilda, Initial residual = 0.0098236526, Final residual = 0.00079130115, No Iterations 2
ExecutionTime = 24.89 s  ClockTime = 25 s

Time = 46

smoothSolver:  Solving for Ux, Initial residual = 0.00054659796, Final residual = 4.337692e-05, No Iterations 2
smoothSolver:  Solving for Uy, Initial residual = 0.0036902692, Final residual = 2.8515423e-06, No Iterations 2
GAMG:  Solving for p, Initial residual = 0.035970318, Final residual = 0.0032572306, No Iterations 15
time step continuity errors : sum local = 4.9449947e-05, global = 1.0484153e-07, cumulative = 1.3927719e-05
smoothSolver:  Solving for nuTilda, Initial residual = 0.009913871, Final residual = 0.00079979015, No Iterations 2
ExecutionTime = 25.26 s  ClockTime = 25 s

Time = 47

smoothSolver:  Solving for Ux, Initial residual = 0.0005377761, Final residual = 4.2718948e-05, No Iterations 2
smoothSolver:  Solving for Uy, Initial residual = 0.0036226511, Final residual = 2.7760628e-06, No Iterations 2
GAMG:  Solving for p, Initial residual = 0.034731511, Final residual = 0.0031414703, No Iterations 10
time step continuity errors : sum local = 4.7252066e-05, global = 1.3366825e-07, cumulative = 1.4061387e-05
smoothSolver:  Solving for nuTilda, Initial residual = 0.010006122, Final residual = 0.0008079955, No Iterations 2
ExecutionTime = 25.54 s  ClockTime = 26 s

Time = 48

smoothSolver:  Solving for Ux, Initial residual = 0.00052933301, Final residual = 4.2089388e-05, No Iterations 2
smoothSolver:  Solving for Uy, Initial residual = 0.0035682047, Final residual = 2.7042e-06, No Iterations 2
GAMG:  Solving for p, Initial residual = 0.034935517, Final residual = 0.0033910732, No Iterations 11
time step continuity errors : sum local = 5.0699736e-05, global = 1.5176519e-07, cumulative = 1.4213152e-05
smoothSolver:  Solving for nuTilda, Initial residual = 0.010105413, Final residual = 0.00081693722, No Iterations 2
ExecutionTime = 25.84 s  ClockTime = 26 s

Time = 49

smoothSolver:  Solving for Ux, Initial residual = 0.00052124636, Final residual = 4.1486419e-05, No Iterations 2
smoothSolver:  Solving for Uy, Initial residual = 0.0035179722, Final residual = 2.606813e-06, No Iterations 2
GAMG:  Solving for p, Initial residual = 0.033787414, Final residual = 0.0029579534, No Iterations 10
time step continuity errors : sum local = 4.3935353e-05, global = 2.8349374e-07, cumulative = 1.4496646e-05
smoothSolver:  Solving for nuTilda, Initial residual = 0.010202479, Final residual = 0.00082570087, No Iterations 2
ExecutionTime = 26.14 s  ClockTime = 26 s

Time = 50

smoothSolver:  Solving for Ux, Initial residual = 0.00051350111, Final residual = 4.0908628e-05, No Iterations 2
smoothSolver:  Solving for Uy, Initial residual = 0.0034714456, Final residual = 2.5209892e-06, No Iterations 2
GAMG:  Solving for p, Initial residual = 0.033908882, Final residual = 0.0033900826, No Iterations 13
time step continuity errors : sum local = 4.9954755e-05, global = 3.4403086e-07, cumulative = 1.4840677e-05
smoothSolver:  Solving for nuTilda, Initial residual = 0.010306696, Final residual = 0.00083487975, No Iterations 2
ExecutionTime = 26.47 s  ClockTime = 26 s

Time = 51

smoothSolver:  Solving for Ux, Initial residual = 0.00050616531, Final residual = 4.0354285e-05, No Iterations 2
smoothSolver:  Solving for Uy, Initial residual = 0.0034161825, Final residual = 2.4814736e-06, No Iterations 2
GAMG:  Solving for p, Initial residual = 0.03301654, Final residual = 0.0031346972, No Iterations 10
time step continuity errors : sum local = 4.5771497e-05, global = 2.8157609e-07, cumulative = 1.5122253e-05
smoothSolver:  Solving for nuTilda, Initial residual = 0.010409621, Final residual = 0.00084414778, No Iterations 2
ExecutionTime = 26.76 s  ClockTime = 27 s

Time = 52

smoothSolver:  Solving for Ux, Initial residual = 0.00049917777, Final residual = 3.9821895e-05, No Iterations 2
smoothSolver:  Solving for Uy, Initial residual = 0.0033416494, Final residual = 2.4384665e-06, No Iterations 2
GAMG:  Solving for p, Initial residual = 0.033238457, Final residual = 0.00305889, No Iterations 13
time step continuity errors : sum local = 4.4093743e-05, global = -2.5851645e-07, cumulative = 1.4863736e-05
smoothSolver:  Solving for nuTilda, Initial residual = 0.010514325, Final residual = 0.00085332783, No Iterations 2
ExecutionTime = 27.08 s  ClockTime = 27 s

Time = 53

smoothSolver:  Solving for Ux, Initial residual = 0.00049253655, Final residual = 3.930992e-05, No Iterations 2
smoothSolver:  Solving for Uy, Initial residual = 0.0032623578, Final residual = 2.3862249e-06, No Iterations 2
GAMG:  Solving for p, Initial residual = 0.032369977, Final residual = 0.0031437711, No Iterations 8
time step continuity errors : sum local = 4.4806421e-05, global = 3.5627494e-07, cumulative = 1.5220011e-05
smoothSolver:  Solving for nuTilda, Initial residual = 0.010621613, Final residual = 0.00086291745, No Iterations 2
ExecutionTime = 27.34 s  ClockTime = 27 s

Time = 54

smoothSolver:  Solving for Ux, Initial residual = 0.00048614902, Final residual = 3.8817378e-05, No Iterations 2
smoothSolver:  Solving for Uy, Initial residual = 0.0031944954, Final residual = 2.3120277e-06, No Iterations 2
GAMG:  Solving for p, Initial residual = 0.032377408, Final residual = 0.0029424493, No Iterations 14
time step continuity errors : sum local = 4.1683238e-05, global = 4.7619695e-07, cumulative = 1.5696208e-05
smoothSolver:  Solving for nuTilda, Initial residual = 0.010730155, Final residual = 0.00087235877, No Iterations 2
ExecutionTime = 27.68 s  ClockTime = 28 s

Time = 55

smoothSolver:  Solving for Ux, Initial residual = 0.00047992908, Final residual = 3.8343148e-05, No Iterations 2
smoothSolver:  Solving for Uy, Initial residual = 0.0031416821, Final residual = 2.2477377e-06, No Iterations 2
GAMG:  Solving for p, Initial residual = 0.032165369, Final residual = 0.0030324884, No Iterations 13
time step continuity errors : sum local = 4.2729354e-05, global = 5.4505883e-07, cumulative = 1.6241267e-05
smoothSolver:  Solving for nuTilda, Initial residual = 0.010843521, Final residual = 0.00088236088, No Iterations 2
ExecutionTime = 28.01 s  ClockTime = 28 s

Time = 56

smoothSolver:  Solving for Ux, Initial residual = 0.00047389408, Final residual = 3.7886288e-05, No Iterations 2
smoothSolver:  Solving for Uy, Initial residual = 0.0031020983, Final residual = 2.2079491e-06, No Iterations 2
GAMG:  Solving for p, Initial residual = 0.030756161, Final residual = 0.002937713, No Iterations 8
time step continuity errors : sum local = 4.1158625e-05, global = 4.3625204e-07, cumulative = 1.6677519e-05
smoothSolver:  Solving for nuTilda, Initial residual = 0.010955566, Final residual = 0.00089215543, No Iterations 2
ExecutionTime = 28.27 s  ClockTime = 28 s

Time = 57

smoothSolver:  Solving for Ux, Initial residual = 0.00046800506, Final residual = 3.7445837e-05, No Iterations 2
smoothSolver:  Solving for Uy, Initial residual = 0.0030645974, Final residual = 2.1471368e-06, No Iterations 2
GAMG:  Solving for p, Initial residual = 0.030989515, Final residual = 0.0026985339, No Iterations 13
time step continuity errors : sum local = 3.7539483e-05, global = 4.5945677e-07, cumulative = 1.7136976e-05
smoothSolver:  Solving for nuTilda, Initial residual = 0.011069637, Final residual = 0.00090211955, No Iterations 2
ExecutionTime = 28.59 s  ClockTime = 29 s

Time = 58

smoothSolver:  Solving for Ux, Initial residual = 0.00046232348, Final residual = 3.7021004e-05, No Iterations 2
smoothSolver:  Solving for Uy, Initial residual = 0.0030229351, Final residual = 2.0911022e-06, No Iterations 2
GAMG:  Solving for p, Initial residual = 0.030033543, Final residual = 0.0029864769, No Iterations 8
time step continuity errors : sum local = 4.1104056e-05, global = 2.9269199e-07, cumulative = 1.7429668e-05
smoothSolver:  Solving for nuTilda, Initial residual = 0.011180379, Final residual = 0.00091183751, No Iterations 2
ExecutionTime = 28.86 s  ClockTime = 29 s

Time = 59

smoothSolver:  Solving for Ux, Initial residual = 0.00045685888, Final residual = 3.6610789e-05, No Iterations 2
smoothSolver:  Solving for Uy, Initial residual = 0.0029796845, Final residual = 2.0430231e-06, No Iterations 2
GAMG:  Solving for p, Initial residual = 0.03015045, Final residual = 0.0026983343, No Iterations 12
time step continuity errors : sum local = 3.6736349e-05, global = 3.1054726e-07, cumulative = 1.7740215e-05
smoothSolver:  Solving for nuTilda, Initial residual = 0.011270717, Final residual = 0.0009197931, No Iterations 2
ExecutionTime = 29.18 s  ClockTime = 29 s

Time = 60

smoothSolver:  Solving for Ux, Initial residual = 0.00045169341, Final residual = 3.6214386e-05, No Iterations 2
smoothSolver:  Solving for Uy, Initial residual = 0.0029260908, Final residual = 2.0171428e-06, No Iterations 2
GAMG:  Solving for p, Initial residual = 0.030112056, Final residual = 0.0029550097, No Iterations 13
time step continuity errors : sum local = 3.975262e-05, global = -1.1713893e-07, cumulative = 1.7623076e-05
smoothSolver:  Solving for nuTilda, Initial residual = 0.010976773, Final residual = 0.0008964854, No Iterations 2
ExecutionTime = 29.51 s  ClockTime = 30 s

Time = 61

smoothSolver:  Solving for Ux, Initial residual = 0.0004467937, Final residual = 3.5831053e-05, No Iterations 2
smoothSolver:  Solving for Uy, Initial residual = 0.0028733866, Final residual = 1.9906535e-06, No Iterations 2
GAMG:  Solving for p, Initial residual = 0.029112818, Final residual = 0.002491734, No Iterations 10
time step continuity errors : sum local = 3.3259615e-05, global = 1.8105676e-07, cumulative = 1.7804133e-05
smoothSolver:  Solving for nuTilda, Initial residual = 0.010483031, Final residual = 0.00085662298, No Iterations 2
ExecutionTime = 29.8 s  ClockTime = 30 s

Time = 62

smoothSolver:  Solving for Ux, Initial residual = 0.00044206402, Final residual = 3.5460164e-05, No Iterations 2
smoothSolver:  Solving for Uy, Initial residual = 0.0028237107, Final residual = 1.9446964e-06, No Iterations 2
GAMG:  Solving for p, Initial residual = 0.029234071, Final residual = 0.0026069716, No Iterations 13
time step continuity errors : sum local = 3.4606535e-05, global = 2.0183692e-07, cumulative = 1.800597e-05
smoothSolver:  Solving for nuTilda, Initial residual = 0.010028284, Final residual = 0.00082002511, No Iterations 2
ExecutionTime = 30.12 s  ClockTime = 30 s

Time = 63

smoothSolver:  Solving for Ux, Initial residual = 0.00043741665, Final residual = 3.5101072e-05, No Iterations 2
smoothSolver:  Solving for Uy, Initial residual = 0.002787345, Final residual = 1.8911565e-06, No Iterations 2
GAMG:  Solving for p, Initial residual = 0.0281794, Final residual = 0.0023893196, No Iterations 10
time step continuity errors : sum local = 3.1573276e-05, global = 1.5366824e-07, cumulative = 1.8159638e-05
smoothSolver:  Solving for nuTilda, Initial residual = 0.0096127056, Final residual = 0.00078649237, No Iterations 2
ExecutionTime = 30.41 s  ClockTime = 30 s

Time = 64

smoothSolver:  Solving for Ux, Initial residual = 0.00043287055, Final residual = 3.4753219e-05, No Iterations 2
smoothSolver:  Solving for Uy, Initial residual = 0.0027566077, Final residual = 1.8494791e-06, No Iterations 2
GAMG:  Solving for p, Initial residual = 0.027884719, Final residual = 0.0024805107, No Iterations 12
time step continuity errors : sum local = 3.2641269e-05, global = 2.0086151e-07, cumulative = 1.83605e-05
smoothSolver:  Solving for nuTilda, Initial residual = 0.0092262, Final residual = 0.00075528576, No Iterations 2
ExecutionTime = 30.72 s  ClockTime = 31 s

Time = 65

smoothSolver:  Solving for Ux, Initial residual = 0.00042845143, Final residual = 3.4416145e-05, No Iterations 2
smoothSolver:  Solving for Uy, Initial residual = 0.002727614, Final residual = 1.8219826e-06, No Iterations 2
GAMG:  Solving for p, Initial residual = 0.027626309, Final residual = 0.0024538832, No Iterations 13
time step continuity errors : sum local = 3.2152781e-05, global = 1.8779784e-07, cumulative = 1.8548298e-05
smoothSolver:  Solving for nuTilda, Initial residual = 0.0088691838, Final residual = 0.00072652334, No Iterations 2
ExecutionTime = 31.06 s  ClockTime = 31 s

Time = 66

smoothSolver:  Solving for Ux, Initial residual = 0.0004241809, Final residual = 3.4089307e-05, No Iterations 2
smoothSolver:  Solving for Uy, Initial residual = 0.0026963742, Final residual = 1.7943564e-06, No Iterations 2
GAMG:  Solving for p, Initial residual = 0.026559605, Final residual = 0.0024499199, No Iterations 8
time step continuity errors : sum local = 3.1910138e-05, global = 2.283928e-07, cumulative = 1.877669e-05
smoothSolver:  Solving for nuTilda, Initial residual = 0.0085387691, Final residual = 0.00069974903, No Iterations 2
ExecutionTime = 31.34 s  ClockTime = 31 s

Time = 67

smoothSolver:  Solving for Ux, Initial residual = 0.00042002008, Final residual = 3.3772195e-05, No Iterations 2
smoothSolver:  Solving for Uy, Initial residual = 0.0026606946, Final residual = 1.7636666e-06, No Iterations 2
GAMG:  Solving for p, Initial residual = 0.026883452, Final residual = 0.0023879091, No Iterations 13
time step continuity errors : sum local = 3.084024e-05, global = 2.5395789e-07, cumulative = 1.9030648e-05
smoothSolver:  Solving for nuTilda, Initial residual = 0.0082289629, Final residual = 0.00067476794, No Iterations 2
ExecutionTime = 31.66 s  ClockTime = 32 s

Time = 68

smoothSolver:  Solving for Ux, Initial residual = 0.00041603404, Final residual = 3.346428e-05, No Iterations 2
smoothSolver:  Solving for Uy, Initial residual = 0.002619709, Final residual = 1.7334852e-06, No Iterations 2
GAMG:  Solving for p, Initial residual = 0.026066973, Final residual = 0.0022647197, No Iterations 10
time step continuity errors : sum local = 2.8944296e-05, global = 1.9330224e-07, cumulative = 1.9223951e-05
smoothSolver:  Solving for nuTilda, Initial residual = 0.007942005, Final residual = 0.00065153563, No Iterations 2
ExecutionTime = 31.98 s  ClockTime = 32 s

Time = 69

smoothSolver:  Solving for Ux, Initial residual = 0.00041218195, Final residual = 3.3165173e-05, No Iterations 2
smoothSolver:  Solving for Uy, Initial residual = 0.0025762675, Final residual = 1.7195532e-06, No Iterations 2
GAMG:  Solving for p, Initial residual = 0.025908164, Final residual = 0.0025690917, No Iterations 10
time step continuity errors : sum local = 3.2496946e-05, global = 2.5327607e-07, cumulative = 1.9477227e-05
smoothSolver:  Solving for nuTilda, Initial residual = 0.0076725298, Final residual = 0.00062970539, No Iterations 2
ExecutionTime = 32.28 s  ClockTime = 32 s

Time = 70

smoothSolver:  Solving for Ux, Initial residual = 0.0004084637, Final residual = 3.2874432e-05, No Iterations 2
smoothSolver:  Solving for Uy, Initial residual = 0.0025411937, Final residual = 1.7027558e-06, No Iterations 2
GAMG:  Solving for p, Initial residual = 0.025784056, Final residual = 0.0022676996, No Iterations 13
time step continuity errors : sum local = 2.8539119e-05, global = 3.9024524e-08, cumulative = 1.9516251e-05
smoothSolver:  Solving for nuTilda, Initial residual = 0.0074196277, Final residual = 0.0006093003, No Iterations 2
ExecutionTime = 32.61 s  ClockTime = 33 s

Time = 71

smoothSolver:  Solving for Ux, Initial residual = 0.00040483973, Final residual = 3.2591711e-05, No Iterations 2
smoothSolver:  Solving for Uy, Initial residual = 0.0025113154, Final residual = 1.6740085e-06, No Iterations 2
GAMG:  Solving for p, Initial residual = 0.024722914, Final residual = 0.0024457201, No Iterations 8
time step continuity errors : sum local = 3.0647874e-05, global = 1.6686512e-07, cumulative = 1.9683116e-05
smoothSolver:  Solving for nuTilda, Initial residual = 0.0071836894, Final residual = 0.00059011885, No Iterations 2
ExecutionTime = 32.89 s  ClockTime = 33 s

Time = 72

smoothSolver:  Solving for Ux, Initial residual = 0.00040129657, Final residual = 3.231671e-05, No Iterations 2
smoothSolver:  Solving for Uy, Initial residual = 0.0024862712, Final residual = 1.6412719e-06, No Iterations 2
GAMG:  Solving for p, Initial residual = 0.025007767, Final residual = 0.0024845615, No Iterations 11
time step continuity errors : sum local = 3.1053838e-05, global = 1.0096349e-07, cumulative = 1.978408e-05
smoothSolver:  Solving for nuTilda, Initial residual = 0.0069600602, Final residual = 0.00057202888, No Iterations 2
ExecutionTime = 33.2 s  ClockTime = 33 s

Time = 73

smoothSolver:  Solving for Ux, Initial residual = 0.00039782252, Final residual = 3.2049073e-05, No Iterations 2
smoothSolver:  Solving for Uy, Initial residual = 0.0024627841, Final residual = 1.6081166e-06, No Iterations 2
GAMG:  Solving for p, Initial residual = 0.024041297, Final residual = 0.002122813, No Iterations 12
time step continuity errors : sum local = 2.6417462e-05, global = 1.6535475e-07, cumulative = 1.9949434e-05
smoothSolver:  Solving for nuTilda, Initial residual = 0.0067506034, Final residual = 0.00055505154, No Iterations 2
ExecutionTime = 33.52 s  ClockTime = 34 s

Time = 74

smoothSolver:  Solving for Ux, Initial residual = 0.00039444752, Final residual = 3.1788537e-05, No Iterations 2
smoothSolver:  Solving for Uy, Initial residual = 0.0024364812, Final residual = 1.6027462e-06, No Iterations 2
GAMG:  Solving for p, Initial residual = 0.023856714, Final residual = 0.0022141288, No Iterations 13
time step continuity errors : sum local = 2.7384133e-05, global = 6.3040235e-08, cumulative = 2.0012475e-05
smoothSolver:  Solving for nuTilda, Initial residual = 0.0065527643, Final residual = 0.00053895153, No Iterations 2
ExecutionTime = 33.86 s  ClockTime = 34 s

Time = 75

smoothSolver:  Solving for Ux, Initial residual = 0.0003911836, Final residual = 3.1534741e-05, No Iterations 2
smoothSolver:  Solving for Uy, Initial residual = 0.0024084442, Final residual = 1.5960016e-06, No Iterations 2
GAMG:  Solving for p, Initial residual = 0.02321911, Final residual = 0.002044816, No Iterations 12
time step continuity errors : sum local = 2.5130864e-05, global = 4.1381307e-08, cumulative = 2.0053856e-05
smoothSolver:  Solving for nuTilda, Initial residual = 0.0063645175, Final residual = 0.00052374153, No Iterations 2
ExecutionTime = 34.2 s  ClockTime = 34 s

Time = 76

smoothSolver:  Solving for Ux, Initial residual = 0.00038799132, Final residual = 3.1287354e-05, No Iterations 2
smoothSolver:  Solving for Uy, Initial residual = 0.0023773632, Final residual = 1.5684083e-06, No Iterations 2
GAMG:  Solving for p, Initial residual = 0.023309971, Final residual = 0.0022109144, No Iterations 11
time step continuity errors : sum local = 2.6966897e-05, global = 1.7177764e-07, cumulative = 2.0225634e-05
smoothSolver:  Solving for nuTilda, Initial residual = 0.0061882994, Final residual = 0.00050939818, No Iterations 2
ExecutionTime = 34.52 s  ClockTime = 35 s

Time = 77

smoothSolver:  Solving for Ux, Initial residual = 0.00038489669, Final residual = 3.1046087e-05, No Iterations 2
smoothSolver:  Solving for Uy, Initial residual = 0.0023475991, Final residual = 1.5410476e-06, No Iterations 2
GAMG:  Solving for p, Initial residual = 0.022467911, Final residual = 0.0019686517, No Iterations 10
time step continuity errors : sum local = 2.3845321e-05, global = 5.0537249e-08, cumulative = 2.0276171e-05
smoothSolver:  Solving for nuTilda, Initial residual = 0.0060201727, Final residual = 0.00049573369, No Iterations 2
ExecutionTime = 34.81 s  ClockTime = 35 s

Time = 78

smoothSolver:  Solving for Ux, Initial residual = 0.00038188208, Final residual = 3.081079e-05, No Iterations 2
smoothSolver:  Solving for Uy, Initial residual = 0.0023180006, Final residual = 1.5273968e-06, No Iterations 2
GAMG:  Solving for p, Initial residual = 0.022251466, Final residual = 0.0019419401, No Iterations 12
time step continuity errors : sum local = 2.3366844e-05, global = -1.5011075e-07, cumulative = 2.012606e-05
smoothSolver:  Solving for nuTilda, Initial residual = 0.0058599117, Final residual = 0.00048275642, No Iterations 2
ExecutionTime = 35.12 s  ClockTime = 35 s

Time = 79

smoothSolver:  Solving for Ux, Initial residual = 0.00037894899, Final residual = 3.0581219e-05, No Iterations 2
smoothSolver:  Solving for Uy, Initial residual = 0.0022909218, Final residual = 1.5200524e-06, No Iterations 2
GAMG:  Solving for p, Initial residual = 0.022033416, Final residual = 0.001957286, No Iterations 11
time step continuity errors : sum local = 2.3421118e-05, global = 2.6921449e-08, cumulative = 2.0152982e-05
smoothSolver:  Solving for nuTilda, Initial residual = 0.0057094683, Final residual = 0.00047047363, No Iterations 2
ExecutionTime = 35.43 s  ClockTime = 35 s

Time = 80

smoothSolver:  Solving for Ux, Initial residual = 0.0003760975, Final residual = 3.0357129e-05, No Iterations 2
smoothSolver:  Solving for Uy, Initial residual = 0.0022691722, Final residual = 1.5004319e-06, No Iterations 2
GAMG:  Solving for p, Initial residual = 0.021270986, Final residual = 0.0018317683, No Iterations 12
time step continuity errors : sum local = 2.186287e-05, global = 6.1755378e-08, cumulative = 2.0214737e-05
smoothSolver:  Solving for nuTilda, Initial residual = 0.0055649443, Final residual = 0.00045873865, No Iterations 2
ExecutionTime = 35.77 s  ClockTime = 36 s

Time = 81

smoothSolver:  Solving for Ux, Initial residual = 0.00037330113, Final residual = 3.0138261e-05, No Iterations 2
smoothSolver:  Solving for Uy, Initial residual = 0.0022492643, Final residual = 1.4754197e-06, No Iterations 2
GAMG:  Solving for p, Initial residual = 0.021365426, Final residual = 0.001818283, No Iterations 11
time step continuity errors : sum local = 2.1655483e-05, global = 1.2806309e-07, cumulative = 2.03428e-05
smoothSolver:  Solving for nuTilda, Initial residual = 0.005427276, Final residual = 0.00044755086, No Iterations 2
ExecutionTime = 36.07 s  ClockTime = 36 s

Time = 82

smoothSolver:  Solving for Ux, Initial residual = 0.00037055912, Final residual = 2.9924425e-05, No Iterations 2
smoothSolver:  Solving for Uy, Initial residual = 0.0022301678, Final residual = 1.4579134e-06, No Iterations 2
GAMG:  Solving for p, Initial residual = 0.020552517, Final residual = 0.0018573423, No Iterations 11
time step continuity errors : sum local = 2.2047107e-05, global = 1.9656764e-08, cumulative = 2.0362457e-05
smoothSolver:  Solving for nuTilda, Initial residual = 0.00529703, Final residual = 0.00043690471, No Iterations 2
ExecutionTime = 36.38 s  ClockTime = 36 s

Time = 83

smoothSolver:  Solving for Ux, Initial residual = 0.0003678702, Final residual = 2.9715513e-05, No Iterations 2
smoothSolver:  Solving for Uy, Initial residual = 0.0022087581, Final residual = 1.4457877e-06, No Iterations 2
GAMG:  Solving for p, Initial residual = 0.020398441, Final residual = 0.0017256017, No Iterations 11
time step continuity errors : sum local = 2.0368079e-05, global = 1.2505408e-07, cumulative = 2.0487511e-05
smoothSolver:  Solving for nuTilda, Initial residual = 0.0051716276, Final residual = 0.00042673024, No Iterations 2
ExecutionTime = 36.68 s  ClockTime = 37 s

Time = 84

smoothSolver:  Solving for Ux, Initial residual = 0.0003652654, Final residual = 2.95113e-05, No Iterations 2
smoothSolver:  Solving for Uy, Initial residual = 0.0021848348, Final residual = 1.4365179e-06, No Iterations 2
GAMG:  Solving for p, Initial residual = 0.019885038, Final residual = 0.0017269271, No Iterations 11
time step continuity errors : sum local = 2.0254538e-05, global = 1.285679e-07, cumulative = 2.0616079e-05
smoothSolver:  Solving for nuTilda, Initial residual = 0.0050522633, Final residual = 0.00041699775, No Iterations 2
ExecutionTime = 36.98 s  ClockTime = 37 s

Time = 85

smoothSolver:  Solving for Ux, Initial residual = 0.00036270607, Final residual = 2.9311564e-05, No Iterations 2
smoothSolver:  Solving for Uy, Initial residual = 0.0021605241, Final residual = 1.4258006e-06, No Iterations 2
GAMG:  Solving for p, Initial residual = 0.019616435, Final residual = 0.0017881729, No Iterations 11
time step continuity errors : sum local = 2.081509e-05, global = 1.2212063e-07, cumulative = 2.0738199e-05
smoothSolver:  Solving for nuTilda, Initial residual = 0.0049384118, Final residual = 0.00040769131, No Iterations 2
ExecutionTime = 37.29 s  ClockTime = 37 s

Time = 86

smoothSolver:  Solving for Ux, Initial residual = 0.00036022135, Final residual = 2.9116093e-05, No Iterations 2
smoothSolver:  Solving for Uy, Initial residual = 0.0021385335, Final residual = 1.4126654e-06, No Iterations 2
GAMG:  Solving for p, Initial residual = 0.019083612, Final residual = 0.001846203, No Iterations 12
time step continuity errors : sum local = 2.1387558e-05, global = 1.2064474e-07, cumulative = 2.0858844e-05
smoothSolver:  Solving for nuTilda, Initial residual = 0.0048286619, Final residual = 0.0003987823, No Iterations 2
ExecutionTime = 37.6 s  ClockTime = 38 s

Time = 87

smoothSolver:  Solving for Ux, Initial residual = 0.00035778761, Final residual = 2.8924815e-05, No Iterations 2
smoothSolver:  Solving for Uy, Initial residual = 0.0021182907, Final residual = 1.4012778e-06, No Iterations 2
GAMG:  Solving for p, Initial residual = 0.019088261, Final residual = 0.0017869801, No Iterations 11
time step continuity errors : sum local = 2.0637638e-05, global = 1.3380422e-07, cumulative = 2.0992648e-05
smoothSolver:  Solving for nuTilda, Initial residual = 0.0047242379, Final residual = 0.00039024243, No Iterations 2
ExecutionTime = 37.91 s  ClockTime = 38 s

Time = 88

smoothSolver:  Solving for Ux, Initial residual = 0.00035540486, Final residual = 2.8737628e-05, No Iterations 2
smoothSolver:  Solving for Uy, Initial residual = 0.0020996976, Final residual = 1.3907422e-06, No Iterations 2
GAMG:  Solving for p, Initial residual = 0.01825256, Final residual = 0.0017257489, No Iterations 12
time step continuity errors : sum local = 1.9864325e-05, global = 1.2605801e-08, cumulative = 2.1005254e-05
smoothSolver:  Solving for nuTilda, Initial residual = 0.0046239409, Final residual = 0.00038204622, No Iterations 2
ExecutionTime = 38.22 s  ClockTime = 38 s

Time = 89

smoothSolver:  Solving for Ux, Initial residual = 0.00035307751, Final residual = 2.8554332e-05, No Iterations 2
smoothSolver:  Solving for Uy, Initial residual = 0.0020807118, Final residual = 1.3772746e-06, No Iterations 2
GAMG:  Solving for p, Initial residual = 0.018105314, Final residual = 0.0015668468, No Iterations 11
time step continuity errors : sum local = 1.7958512e-05, global = 1.103451e-07, cumulative = 2.1115599e-05
smoothSolver:  Solving for nuTilda, Initial residual = 0.0045271584, Final residual = 0.00037417535, No Iterations 2
ExecutionTime = 38.52 s  ClockTime = 39 s

Time = 90

smoothSolver:  Solving for Ux, Initial residual = 0.00035079838, Final residual = 2.8374763e-05, No Iterations 2
smoothSolver:  Solving for Uy, Initial residual = 0.002062379, Final residual = 1.3649097e-06, No Iterations 2
GAMG:  Solving for p, Initial residual = 0.017784719, Final residual = 0.0016105631, No Iterations 11
time step continuity errors : sum local = 1.8382542e-05, global = 1.0601773e-07, cumulative = 2.1221617e-05
smoothSolver:  Solving for nuTilda, Initial residual = 0.0044349479, Final residual = 0.000366621, No Iterations 2
ExecutionTime = 38.83 s  ClockTime = 39 s

Time = 91

smoothSolver:  Solving for Ux, Initial residual = 0.00034856214, Final residual = 2.8198781e-05, No Iterations 2
smoothSolver:  Solving for Uy, Initial residual = 0.0020446454, Final residual = 1.3545816e-06, No Iterations 2
GAMG:  Solving for p, Initial residual = 0.017340525, Final residual = 0.0017317683, No Iterations 11
time step continuity errors : sum local = 1.9685309e-05, global = 1.6063611e-07, cumulative = 2.1382253e-05
smoothSolver:  Solving for nuTilda, Initial residual = 0.0043460904, Final residual = 0.00035936017, No Iterations 2
ExecutionTime = 39.13 s  ClockTime = 39 s

Time = 92

smoothSolver:  Solving for Ux, Initial residual = 0.0003463612, Final residual = 2.8026335e-05, No Iterations 2
smoothSolver:  Solving for Uy, Initial residual = 0.002026969, Final residual = 1.3455734e-06, No Iterations 2
GAMG:  Solving for p, Initial residual = 0.017099375, Final residual = 0.0015484125, No Iterations 11
time step continuity errors : sum local = 1.7524569e-05, global = 1.0225062e-07, cumulative = 2.1484504e-05
smoothSolver:  Solving for nuTilda, Initial residual = 0.0042601528, Final residual = 0.00035235673, No Iterations 2
ExecutionTime = 39.44 s  ClockTime = 39 s

Time = 93

smoothSolver:  Solving for Ux, Initial residual = 0.00034421932, Final residual = 2.785731e-05, No Iterations 2
smoothSolver:  Solving for Uy, Initial residual = 0.0020085796, Final residual = 1.3368392e-06, No Iterations 2
GAMG:  Solving for p, Initial residual = 0.016675978, Final residual = 0.0015525215, No Iterations 11
time step continuity errors : sum local = 1.7491481e-05, global = -5.7108139e-09, cumulative = 2.1478793e-05
smoothSolver:  Solving for nuTilda, Initial residual = 0.0041781396, Final residual = 0.00034563059, No Iterations 2
ExecutionTime = 39.74 s  ClockTime = 40 s

Time = 94

smoothSolver:  Solving for Ux, Initial residual = 0.00034210879, Final residual = 2.7691522e-05, No Iterations 2
smoothSolver:  Solving for Uy, Initial residual = 0.0019912265, Final residual = 1.3265198e-06, No Iterations 2
GAMG:  Solving for p, Initial residual = 0.016447105, Final residual = 0.0014000677, No Iterations 11
time step continuity errors : sum local = 1.5706087e-05, global = 6.9639945e-08, cumulative = 2.1548433e-05
smoothSolver:  Solving for nuTilda, Initial residual = 0.004098926, Final residual = 0.00033915662, No Iterations 2
ExecutionTime = 40.04 s  ClockTime = 40 s

Time = 95

smoothSolver:  Solving for Ux, Initial residual = 0.00034005089, Final residual = 2.7528848e-05, No Iterations 2
smoothSolver:  Solving for Uy, Initial residual = 0.0019738427, Final residual = 1.3174e-06, No Iterations 2
GAMG:  Solving for p, Initial residual = 0.016054493, Final residual = 0.0014243543, No Iterations 11
time step continuity errors : sum local = 1.5908193e-05, global = 7.0748782e-08, cumulative = 2.1619182e-05
smoothSolver:  Solving for nuTilda, Initial residual = 0.0040221559, Final residual = 0.00033288865, No Iterations 2
ExecutionTime = 40.35 s  ClockTime = 40 s

Time = 96

smoothSolver:  Solving for Ux, Initial residual = 0.00033803311, Final residual = 2.7369246e-05, No Iterations 2
smoothSolver:  Solving for Uy, Initial residual = 0.001957673, Final residual = 1.3106887e-06, No Iterations 2
GAMG:  Solving for p, Initial residual = 0.015796044, Final residual = 0.0014123371, No Iterations 11
time step continuity errors : sum local = 1.5716035e-05, global = 9.9903671e-08, cumulative = 2.1719085e-05
smoothSolver:  Solving for nuTilda, Initial residual = 0.0039486724, Final residual = 0.00032685697, No Iterations 2
ExecutionTime = 40.65 s  ClockTime = 41 s

Time = 97

smoothSolver:  Solving for Ux, Initial residual = 0.00033605131, Final residual = 2.7212637e-05, No Iterations 2
smoothSolver:  Solving for Uy, Initial residual = 0.0019414303, Final residual = 1.3020182e-06, No Iterations 2
GAMG:  Solving for p, Initial residual = 0.015494452, Final residual = 0.0014105342, No Iterations 11
time step continuity errors : sum local = 1.5640265e-05, global = 8.7751876e-08, cumulative = 2.1806837e-05
smoothSolver:  Solving for nuTilda, Initial residual = 0.0038776552, Final residual = 0.0003210502, No Iterations 2
ExecutionTime = 40.96 s  ClockTime = 41 s

Time = 98

smoothSolver:  Solving for Ux, Initial residual = 0.00033410988, Final residual = 2.7058924e-05, No Iterations 2
smoothSolver:  Solving for Uy, Initial residual = 0.0019250502, Final residual = 1.2932004e-06, No Iterations 2
GAMG:  Solving for p, Initial residual = 0.015198653, Final residual = 0.0014482622, No Iterations 11
time step continuity errors : sum local = 1.5997456e-05, global = 1.1576811e-07, cumulative = 2.1922605e-05
smoothSolver:  Solving for nuTilda, Initial residual = 0.0038087769, Final residual = 0.00031541776, No Iterations 2
ExecutionTime = 41.26 s  ClockTime = 41 s

Time = 99

smoothSolver:  Solving for Ux, Initial residual = 0.0003322007, Final residual = 2.6907946e-05, No Iterations 2
smoothSolver:  Solving for Uy, Initial residual = 0.0019086506, Final residual = 1.2853475e-06, No Iterations 2
GAMG:  Solving for p, Initial residual = 0.014940435, Final residual = 0.0013566062, No Iterations 11
time step continuity errors : sum local = 1.493185e-05, global = 7.98455e-08, cumulative = 2.2002451e-05
smoothSolver:  Solving for nuTilda, Initial residual = 0.0037425585, Final residual = 0.00030997841, No Iterations 2
ExecutionTime = 41.57 s  ClockTime = 42 s

Time = 100

smoothSolver:  Solving for Ux, Initial residual = 0.000330332, Final residual = 2.6759616e-05, No Iterations 2
smoothSolver:  Solving for Uy, Initial residual = 0.0018923461, Final residual = 1.2797447e-06, No Iterations 2
GAMG:  Solving for p, Initial residual = 0.014590538, Final residual = 0.001437938, No Iterations 11
time step continuity errors : sum local = 1.5757542e-05, global = 1.3799325e-07, cumulative = 2.2140444e-05
smoothSolver:  Solving for nuTilda, Initial residual = 0.0036785604, Final residual = 0.00030474185, No Iterations 2
ExecutionTime = 41.87 s  ClockTime = 42 s

Time = 101

smoothSolver:  Solving for Ux, Initial residual = 0.00032848885, Final residual = 2.6613928e-05, No Iterations 2
smoothSolver:  Solving for Uy, Initial residual = 0.0018769663, Final residual = 1.2733384e-06, No Iterations 2
GAMG:  Solving for p, Initial residual = 0.014387174, Final residual = 0.0013220172, No Iterations 11
time step continuity errors : sum local = 1.4435965e-05, global = 8.0876599e-08, cumulative = 2.2221321e-05
smoothSolver:  Solving for nuTilda, Initial residual = 0.0036164168, Final residual = 0.00029965367, No Iterations 2
ExecutionTime = 42.17 s  ClockTime = 42 s

Time = 102

smoothSolver:  Solving for Ux, Initial residual = 0.00032668511, Final residual = 2.6470803e-05, No Iterations 2
smoothSolver:  Solving for Uy, Initial residual = 0.001861661, Final residual = 1.2659484e-06, No Iterations 2
GAMG:  Solving for p, Initial residual = 0.014049074, Final residual = 0.0013522657, No Iterations 11
time step continuity errors : sum local = 1.470336e-05, global = 1.1645638e-07, cumulative = 2.2337777e-05
smoothSolver:  Solving for nuTilda, Initial residual = 0.0035564822, Final residual = 0.00029472745, No Iterations 2
ExecutionTime = 42.48 s  ClockTime = 43 s

Time = 103

smoothSolver:  Solving for Ux, Initial residual = 0.00032490828, Final residual = 2.6330123e-05, No Iterations 2
smoothSolver:  Solving for Uy, Initial residual = 0.0018460588, Final residual = 1.2592614e-06, No Iterations 2
GAMG:  Solving for p, Initial residual = 0.013832383, Final residual = 0.0012569117, No Iterations 11
time step continuity errors : sum local = 1.3613809e-05, global = 7.1491672e-08, cumulative = 2.2409269e-05
smoothSolver:  Solving for nuTilda, Initial residual = 0.003498494, Final residual = 0.00028997828, No Iterations 2
ExecutionTime = 42.79 s  ClockTime = 43 s

Time = 104

smoothSolver:  Solving for Ux, Initial residual = 0.00032317345, Final residual = 2.6191802e-05, No Iterations 2
smoothSolver:  Solving for Uy, Initial residual = 0.0018301573, Final residual = 1.2527654e-06, No Iterations 2
GAMG:  Solving for p, Initial residual = 0.013521472, Final residual = 0.0013096188, No Iterations 11
time step continuity errors : sum local = 1.4124173e-05, global = 9.75023e-08, cumulative = 2.2506771e-05
smoothSolver:  Solving for nuTilda, Initial residual = 0.0034421609, Final residual = 0.00028536101, No Iterations 2
ExecutionTime = 43.09 s  ClockTime = 43 s

Time = 105

smoothSolver:  Solving for Ux, Initial residual = 0.00032145834, Final residual = 2.6055768e-05, No Iterations 2
smoothSolver:  Solving for Uy, Initial residual = 0.0018146643, Final residual = 1.2465491e-06, No Iterations 2
GAMG:  Solving for p, Initial residual = 0.013316002, Final residual = 0.0012271342, No Iterations 11
time step continuity errors : sum local = 1.3187205e-05, global = 1.0762303e-07, cumulative = 2.2614394e-05
smoothSolver:  Solving for nuTilda, Initial residual = 0.0033876951, Final residual = 0.00028088198, No Iterations 2
ExecutionTime = 43.39 s  ClockTime = 43 s

Time = 106

smoothSolver:  Solving for Ux, Initial residual = 0.00031978062, Final residual = 2.592199e-05, No Iterations 2
smoothSolver:  Solving for Uy, Initial residual = 0.001799134, Final residual = 1.2390208e-06, No Iterations 2
GAMG:  Solving for p, Initial residual = 0.013025136, Final residual = 0.0012747208, No Iterations 11
time step continuity errors : sum local = 1.3646566e-05, global = 1.1606594e-07, cumulative = 2.273046e-05
smoothSolver:  Solving for nuTilda, Initial residual = 0.0033349418, Final residual = 0.00027655701, No Iterations 2
ExecutionTime = 43.69 s  ClockTime = 44 s

Time = 107

smoothSolver:  Solving for Ux, Initial residual = 0.00031812425, Final residual = 2.5790418e-05, No Iterations 2
smoothSolver:  Solving for Uy, Initial residual = 0.0017838497, Final residual = 1.2328742e-06, No Iterations 2
GAMG:  Solving for p, Initial residual = 0.012833907, Final residual = 0.0011986614, No Iterations 11
time step continuity errors : sum local = 1.2787619e-05, global = 1.2721301e-07, cumulative = 2.2857673e-05
smoothSolver:  Solving for nuTilda, Initial residual = 0.0032836257, Final residual = 0.00027234733, No Iterations 2
ExecutionTime = 44 s  ClockTime = 44 s

Time = 108

smoothSolver:  Solving for Ux, Initial residual = 0.00031650372, Final residual = 2.566098e-05, No Iterations 2
smoothSolver:  Solving for Uy, Initial residual = 0.001768565, Final residual = 1.2286979e-06, No Iterations 2
GAMG:  Solving for p, Initial residual = 0.012548579, Final residual = 0.0012254384, No Iterations 11
time step continuity errors : sum local = 1.3017992e-05, global = 1.2923135e-07, cumulative = 2.2986904e-05
smoothSolver:  Solving for nuTilda, Initial residual = 0.0032338989, Final residual = 0.00026825633, No Iterations 2
ExecutionTime = 44.3 s  ClockTime = 44 s

Time = 109

smoothSolver:  Solving for Ux, Initial residual = 0.00031490366, Final residual = 2.5533563e-05, No Iterations 2
smoothSolver:  Solving for Uy, Initial residual = 0.0017534678, Final residual = 1.2244893e-06, No Iterations 2
GAMG:  Solving for p, Initial residual = 0.012352252, Final residual = 0.0011448107, No Iterations 11
time step continuity errors : sum local = 1.2115722e-05, global = 1.2971014e-07, cumulative = 2.3116614e-05
smoothSolver:  Solving for nuTilda, Initial residual = 0.0031857697, Final residual = 0.00026430582, No Iterations 2
ExecutionTime = 44.61 s  ClockTime = 45 s

Time = 110

smoothSolver:  Solving for Ux, Initial residual = 0.00031333664, Final residual = 2.5408143e-05, No Iterations 2
smoothSolver:  Solving for Uy, Initial residual = 0.0017385804, Final residual = 1.2190954e-06, No Iterations 2
GAMG:  Solving for p, Initial residual = 0.012094767, Final residual = 0.0010599057, No Iterations 13
time step continuity errors : sum local = 1.1169351e-05, global = 4.5472379e-08, cumulative = 2.3162087e-05
smoothSolver:  Solving for nuTilda, Initial residual = 0.0031388424, Final residual = 0.00026045352, No Iterations 2
ExecutionTime = 44.95 s  ClockTime = 45 s

Time = 111

smoothSolver:  Solving for Ux, Initial residual = 0.00031178981, Final residual = 2.5284675e-05, No Iterations 2
smoothSolver:  Solving for Uy, Initial residual = 0.0017233723, Final residual = 1.2123784e-06, No Iterations 2
GAMG:  Solving for p, Initial residual = 0.011848437, Final residual = 0.0010791376, No Iterations 11
time step continuity errors : sum local = 1.1323738e-05, global = 7.4760035e-08, cumulative = 2.3236847e-05
smoothSolver:  Solving for nuTilda, Initial residual = 0.0030932751, Final residual = 0.00025670305, No Iterations 2
ExecutionTime = 45.26 s  ClockTime = 45 s

Time = 112

smoothSolver:  Solving for Ux, Initial residual = 0.00031027074, Final residual = 2.5163112e-05, No Iterations 2
smoothSolver:  Solving for Uy, Initial residual = 0.0017090329, Final residual = 1.2080968e-06, No Iterations 2
GAMG:  Solving for p, Initial residual = 0.0116442, Final residual = 0.0010956289, No Iterations 11
time step continuity errors : sum local = 1.1451294e-05, global = 8.780635e-08, cumulative = 2.3324653e-05
smoothSolver:  Solving for nuTilda, Initial residual = 0.0030491558, Final residual = 0.00025307733, No Iterations 2
ExecutionTime = 45.57 s  ClockTime = 46 s

Time = 113

smoothSolver:  Solving for Ux, Initial residual = 0.00030877311, Final residual = 2.5043397e-05, No Iterations 2
smoothSolver:  Solving for Uy, Initial residual = 0.0016944065, Final residual = 1.2037997e-06, No Iterations 2
GAMG:  Solving for p, Initial residual = 0.011439082, Final residual = 0.0010624314, No Iterations 11
time step continuity errors : sum local = 1.1066771e-05, global = 5.3659966e-08, cumulative = 2.3378313e-05
smoothSolver:  Solving for nuTilda, Initial residual = 0.0030061352, Final residual = 0.00024954397, No Iterations 2
ExecutionTime = 45.88 s  ClockTime = 46 s

Time = 114

smoothSolver:  Solving for Ux, Initial residual = 0.0003073087, Final residual = 2.4925483e-05, No Iterations 2
smoothSolver:  Solving for Uy, Initial residual = 0.001680024, Final residual = 1.1982603e-06, No Iterations 2
GAMG:  Solving for p, Initial residual = 0.011234026, Final residual = 0.0011014147, No Iterations 11
time step continuity errors : sum local = 1.1428607e-05, global = 9.9509347e-08, cumulative = 2.3477823e-05
smoothSolver:  Solving for nuTilda, Initial residual = 0.0029642332, Final residual = 0.00024609343, No Iterations 2
ExecutionTime = 46.19 s  ClockTime = 46 s

Time = 115

smoothSolver:  Solving for Ux, Initial residual = 0.00030586056, Final residual = 2.4809292e-05, No Iterations 2
smoothSolver:  Solving for Uy, Initial residual = 0.0016653469, Final residual = 1.1935022e-06, No Iterations 2
GAMG:  Solving for p, Initial residual = 0.011074253, Final residual = 0.001028014, No Iterations 11
time step continuity errors : sum local = 1.062796e-05, global = 1.6635882e-08, cumulative = 2.3494458e-05
smoothSolver:  Solving for nuTilda, Initial residual = 0.0029236292, Final residual = 0.00024275279, No Iterations 2
ExecutionTime = 46.5 s  ClockTime = 47 s

Time = 116

smoothSolver:  Solving for Ux, Initial residual = 0.00030443937, Final residual = 2.4694808e-05, No Iterations 2
smoothSolver:  Solving for Uy, Initial residual = 0.0016507061, Final residual = 1.187559e-06, No Iterations 2
GAMG:  Solving for p, Initial residual = 0.010831023, Final residual = 0.00095937535, No Iterations 13
time step continuity errors : sum local = 9.8711605e-06, global = 1.8579705e-07, cumulative = 2.3680256e-05
smoothSolver:  Solving for nuTilda, Initial residual = 0.0028840585, Final residual = 0.00023950161, No Iterations 2
ExecutionTime = 46.83 s  ClockTime = 47 s

Time = 117

smoothSolver:  Solving for Ux, Initial residual = 0.00030302871, Final residual = 2.458199e-05, No Iterations 2
smoothSolver:  Solving for Uy, Initial residual = 0.0016361398, Final residual = 1.184336e-06, No Iterations 2
GAMG:  Solving for p, Initial residual = 0.010648524, Final residual = 0.00096415834, No Iterations 11
time step continuity errors : sum local = 9.87331e-06, global = 1.0814922e-07, cumulative = 2.3788405e-05
smoothSolver:  Solving for nuTilda, Initial residual = 0.0028454504, Final residual = 0.00023632047, No Iterations 2
ExecutionTime = 47.14 s  ClockTime = 47 s

Time = 118

smoothSolver:  Solving for Ux, Initial residual = 0.00030164625, Final residual = 2.4470791e-05, No Iterations 2
smoothSolver:  Solving for Uy, Initial residual = 0.0016223317, Final residual = 1.1818408e-06, No Iterations 2
GAMG:  Solving for p, Initial residual = 0.01041701, Final residual = 0.0010406204, No Iterations 11
time step continuity errors : sum local = 1.0617108e-05, global = 9.3737615e-08, cumulative = 2.3882142e-05
smoothSolver:  Solving for nuTilda, Initial residual = 0.0028079116, Final residual = 0.00023322892, No Iterations 2
ExecutionTime = 47.44 s  ClockTime = 47 s

Time = 119

smoothSolver:  Solving for Ux, Initial residual = 0.00030028017, Final residual = 2.4361156e-05, No Iterations 2
smoothSolver:  Solving for Uy, Initial residual = 0.0016090098, Final residual = 1.1787625e-06, No Iterations 2
GAMG:  Solving for p, Initial residual = 0.010274964, Final residual = 0.0009620726, No Iterations 11
time step continuity errors : sum local = 9.7843885e-06, global = 9.6508209e-08, cumulative = 2.3978651e-05
smoothSolver:  Solving for nuTilda, Initial residual = 0.0027714046, Final residual = 0.00023022866, No Iterations 2
ExecutionTime = 47.75 s  ClockTime = 48 s

Time = 120

smoothSolver:  Solving for Ux, Initial residual = 0.0002989474, Final residual = 2.4253052e-05, No Iterations 2
smoothSolver:  Solving for Uy, Initial residual = 0.0015951237, Final residual = 1.1738449e-06, No Iterations 2
GAMG:  Solving for p, Initial residual = 0.010046764, Final residual = 0.0008904642, No Iterations 13
time step continuity errors : sum local = 9.0182594e-06, global = 1.0919143e-07, cumulative = 2.4087842e-05
smoothSolver:  Solving for nuTilda, Initial residual = 0.0027357576, Final residual = 0.00022728954, No Iterations 2
ExecutionTime = 48.08 s  ClockTime = 48 s

Time = 121

smoothSolver:  Solving for Ux, Initial residual = 0.00029762869, Final residual = 2.4146474e-05, No Iterations 2
smoothSolver:  Solving for Uy, Initial residual = 0.0015810527, Final residual = 1.1689445e-06, No Iterations 2
GAMG:  Solving for p, Initial residual = 0.0098822472, Final residual = 0.00087616862, No Iterations 11
time step continuity errors : sum local = 8.8331961e-06, global = -1.6129025e-08, cumulative = 2.4071713e-05
smoothSolver:  Solving for nuTilda, Initial residual = 0.002700968, Final residual = 0.00022442168, No Iterations 2
ExecutionTime = 48.38 s  ClockTime = 48 s

Time = 122

smoothSolver:  Solving for Ux, Initial residual = 0.00029632994, Final residual = 2.4041343e-05, No Iterations 2
smoothSolver:  Solving for Uy, Initial residual = 0.0015673091, Final residual = 1.1654617e-06, No Iterations 2
GAMG:  Solving for p, Initial residual = 0.0096729896, Final residual = 0.00087396188, No Iterations 13
time step continuity errors : sum local = 8.7726197e-06, global = 3.7028663e-08, cumulative = 2.4108742e-05
smoothSolver:  Solving for nuTilda, Initial residual = 0.0026671442, Final residual = 0.00022164178, No Iterations 2
ExecutionTime = 48.71 s  ClockTime = 49 s

Time = 123

smoothSolver:  Solving for Ux, Initial residual = 0.00029503961, Final residual = 2.3937627e-05, No Iterations 2
smoothSolver:  Solving for Uy, Initial residual = 0.0015539292, Final residual = 1.1621269e-06, No Iterations 2
GAMG:  Solving for p, Initial residual = 0.0095169185, Final residual = 0.00091883634, No Iterations 11
time step continuity errors : sum local = 9.1893994e-06, global = 6.8183104e-08, cumulative = 2.4176925e-05
smoothSolver:  Solving for nuTilda, Initial residual = 0.0026341552, Final residual = 0.00021891985, No Iterations 2
ExecutionTime = 49.02 s  ClockTime = 49 s

Time = 124

smoothSolver:  Solving for Ux, Initial residual = 0.00029376789, Final residual = 2.3835319e-05, No Iterations 2
smoothSolver:  Solving for Uy, Initial residual = 0.0015416371, Final residual = 1.1598115e-06, No Iterations 2
GAMG:  Solving for p, Initial residual = 0.0093567716, Final residual = 0.00089791377, No Iterations 11
time step continuity errors : sum local = 8.9506163e-06, global = 6.6471085e-08, cumulative = 2.4243396e-05
smoothSolver:  Solving for nuTilda, Initial residual = 0.0026018587, Final residual = 0.00021625525, No Iterations 2
ExecutionTime = 49.32 s  ClockTime = 49 s

Time = 125

smoothSolver:  Solving for Ux, Initial residual = 0.00029251814, Final residual = 2.3734367e-05, No Iterations 2
smoothSolver:  Solving for Uy, Initial residual = 0.0015285759, Final residual = 1.1558453e-06, No Iterations 2
GAMG:  Solving for p, Initial residual = 0.0091917291, Final residual = 0.00089259607, No Iterations 11
time step continuity errors : sum local = 8.863305e-06, global = 5.1891894e-08, cumulative = 2.4295288e-05
smoothSolver:  Solving for nuTilda, Initial residual = 0.0025704267, Final residual = 0.0002136704, No Iterations 2
ExecutionTime = 49.62 s  ClockTime = 50 s

Time = 126

smoothSolver:  Solving for Ux, Initial residual = 0.0002912918, Final residual = 2.3634734e-05, No Iterations 2
smoothSolver:  Solving for Uy, Initial residual = 0.0015157292, Final residual = 1.1517495e-06, No Iterations 2
GAMG:  Solving for p, Initial residual = 0.0090585503, Final residual = 0.00089663127, No Iterations 11
time step continuity errors : sum local = 8.8602666e-06, global = 7.1631364e-08, cumulative = 2.4366919e-05
smoothSolver:  Solving for nuTilda, Initial residual = 0.0025397765, Final residual = 0.00021114118, No Iterations 2
ExecutionTime = 49.93 s  ClockTime = 50 s

Time = 127

smoothSolver:  Solving for Ux, Initial residual = 0.00029008097, Final residual = 2.3536407e-05, No Iterations 2
smoothSolver:  Solving for Uy, Initial residual = 0.0015024541, Final residual = 1.1478804e-06, No Iterations 2
GAMG:  Solving for p, Initial residual = 0.0088690545, Final residual = 0.00088587916, No Iterations 11
time step continuity errors : sum local = 8.7185016e-06, global = 4.8816341e-08, cumulative = 2.4415735e-05
smoothSolver:  Solving for nuTilda, Initial residual = 0.0025097606, Final residual = 0.00020866373, No Iterations 2
ExecutionTime = 50.23 s  ClockTime = 50 s

Time = 128

smoothSolver:  Solving for Ux, Initial residual = 0.00028888269, Final residual = 2.343936e-05, No Iterations 2
smoothSolver:  Solving for Uy, Initial residual = 0.0014904547, Final residual = 1.1450585e-06, No Iterations 2
GAMG:  Solving for p, Initial residual = 0.0087300314, Final residual = 0.00086158327, No Iterations 11
time step continuity errors : sum local = 8.4467729e-06, global = 5.0103066e-08, cumulative = 2.4465838e-05
smoothSolver:  Solving for nuTilda, Initial residual = 0.002480467, Final residual = 0.00020625147, No Iterations 2
ExecutionTime = 50.53 s  ClockTime = 51 s

Time = 129

smoothSolver:  Solving for Ux, Initial residual = 0.00028769956, Final residual = 2.3343536e-05, No Iterations 2
smoothSolver:  Solving for Uy, Initial residual = 0.0014781177, Final residual = 1.1429514e-06, No Iterations 2
[...]
smoothSolver:  Solving for nuTilda, Initial residual = 3.5300461e-05, Final residual = 2.9406638e-06, No Iterations 2
ExecutionTime = 2236.86 s  ClockTime = 2238 s

Time = 4969

smoothSolver:  Solving for Ux, Initial residual = 1.446189e-05, Final residual = 1.1961985e-06, No Iterations 2
smoothSolver:  Solving for Uy, Initial residual = 2.7499685e-05, Final residual = 3.7448077e-07, No Iterations 2
GAMG:  Solving for p, Initial residual = 1.0785278e-05, Final residual = 1.0082894e-06, No Iterations 17
time step continuity errors : sum local = 1.8216523e-07, global = -1.3705813e-08, cumulative = 3.2044442e-05
smoothSolver:  Solving for nuTilda, Initial residual = 3.5284258e-05, Final residual = 2.9392878e-06, No Iterations 2
ExecutionTime = 2237.24 s  ClockTime = 2238 s

Time = 4970

smoothSolver:  Solving for Ux, Initial residual = 1.4456522e-05, Final residual = 1.1957575e-06, No Iterations 2
smoothSolver:  Solving for Uy, Initial residual = 2.748697e-05, Final residual = 3.7441142e-07, No Iterations 2
GAMG:  Solving for p, Initial residual = 1.0785884e-05, Final residual = 1.0063487e-06, No Iterations 17
time step continuity errors : sum local = 1.8183793e-07, global = -1.3508195e-08, cumulative = 3.2030934e-05
smoothSolver:  Solving for nuTilda, Initial residual = 3.5267361e-05, Final residual = 2.9379049e-06, No Iterations 2
ExecutionTime = 2237.61 s  ClockTime = 2238 s

Time = 4971

smoothSolver:  Solving for Ux, Initial residual = 1.4451196e-05, Final residual = 1.1953162e-06, No Iterations 2
smoothSolver:  Solving for Uy, Initial residual = 2.7479421e-05, Final residual = 3.743814e-07, No Iterations 2
GAMG:  Solving for p, Initial residual = 1.0780524e-05, Final residual = 1.007702e-06, No Iterations 17
time step continuity errors : sum local = 1.821061e-07, global = -1.3700988e-08, cumulative = 3.2017233e-05
smoothSolver:  Solving for nuTilda, Initial residual = 3.5251176e-05, Final residual = 2.9365304e-06, No Iterations 2
ExecutionTime = 2237.98 s  ClockTime = 2239 s

Time = 4972

smoothSolver:  Solving for Ux, Initial residual = 1.4445832e-05, Final residual = 1.1948755e-06, No Iterations 2
smoothSolver:  Solving for Uy, Initial residual = 2.7466716e-05, Final residual = 3.7431207e-07, No Iterations 2
GAMG:  Solving for p, Initial residual = 1.0781109e-05, Final residual = 1.0057657e-06, No Iterations 17
time step continuity errors : sum local = 1.817795e-07, global = -1.3503461e-08, cumulative = 3.2003729e-05
smoothSolver:  Solving for nuTilda, Initial residual = 3.5234297e-05, Final residual = 2.935149e-06, No Iterations 2
ExecutionTime = 2238.36 s  ClockTime = 2239 s

Time = 4973

smoothSolver:  Solving for Ux, Initial residual = 1.4440511e-05, Final residual = 1.1944345e-06, No Iterations 2
smoothSolver:  Solving for Uy, Initial residual = 2.7459175e-05, Final residual = 3.74282e-07, No Iterations 2
GAMG:  Solving for p, Initial residual = 1.0775731e-05, Final residual = 1.0071154e-06, No Iterations 17
time step continuity errors : sum local = 1.8204704e-07, global = -1.3696156e-08, cumulative = 3.1990033e-05
smoothSolver:  Solving for nuTilda, Initial residual = 3.521813e-05, Final residual = 2.933776e-06, No Iterations 2
ExecutionTime = 2238.73 s  ClockTime = 2240 s

Time = 4974

smoothSolver:  Solving for Ux, Initial residual = 1.4435152e-05, Final residual = 1.1939943e-06, No Iterations 2
smoothSolver:  Solving for Uy, Initial residual = 2.7446481e-05, Final residual = 3.7421269e-07, No Iterations 2
GAMG:  Solving for p, Initial residual = 1.0776297e-05, Final residual = 1.0051836e-06, No Iterations 17
time step continuity errors : sum local = 1.8172113e-07, global = -1.3498737e-08, cumulative = 3.1976535e-05
smoothSolver:  Solving for nuTilda, Initial residual = 3.5201268e-05, Final residual = 2.9323961e-06, No Iterations 2
ExecutionTime = 2239.1 s  ClockTime = 2240 s

Time = 4975

smoothSolver:  Solving for Ux, Initial residual = 1.4429834e-05, Final residual = 1.1935536e-06, No Iterations 2
smoothSolver:  Solving for Uy, Initial residual = 2.7438948e-05, Final residual = 3.7418258e-07, No Iterations 2
GAMG:  Solving for p, Initial residual = 1.0770912e-05, Final residual = 1.0065297e-06, No Iterations 17
time step continuity errors : sum local = 1.8198804e-07, global = -1.3691334e-08, cumulative = 3.1962843e-05
smoothSolver:  Solving for nuTilda, Initial residual = 3.5185119e-05, Final residual = 2.9310246e-06, No Iterations 2
ExecutionTime = 2239.48 s  ClockTime = 2240 s

Time = 4976

smoothSolver:  Solving for Ux, Initial residual = 1.442448e-05, Final residual = 1.1931138e-06, No Iterations 2
smoothSolver:  Solving for Uy, Initial residual = 2.7426265e-05, Final residual = 3.7411329e-07, No Iterations 2
GAMG:  Solving for p, Initial residual = 1.0771471e-05, Final residual = 1.0046023e-06, No Iterations 17
time step continuity errors : sum local = 1.8166283e-07, global = -1.3494022e-08, cumulative = 3.1949349e-05
smoothSolver:  Solving for nuTilda, Initial residual = 3.5168276e-05, Final residual = 2.9296462e-06, No Iterations 2
ExecutionTime = 2239.85 s  ClockTime = 2241 s

Time = 4977

smoothSolver:  Solving for Ux, Initial residual = 1.4419167e-05, Final residual = 1.1926735e-06, No Iterations 2
smoothSolver:  Solving for Uy, Initial residual = 2.741874e-05, Final residual = 3.7408315e-07, No Iterations 2
GAMG:  Solving for p, Initial residual = 1.0766079e-05, Final residual = 1.0059447e-06, No Iterations 17
time step continuity errors : sum local = 1.8192911e-07, global = -1.3686515e-08, cumulative = 3.1935663e-05
smoothSolver:  Solving for nuTilda, Initial residual = 3.5152145e-05, Final residual = 2.9282763e-06, No Iterations 2
ExecutionTime = 2240.22 s  ClockTime = 2241 s

Time = 4978

smoothSolver:  Solving for Ux, Initial residual = 1.4413818e-05, Final residual = 1.192234e-06, No Iterations 2
smoothSolver:  Solving for Uy, Initial residual = 2.7406067e-05, Final residual = 3.7401387e-07, No Iterations 2
GAMG:  Solving for p, Initial residual = 1.0766622e-05, Final residual = 1.0040219e-06, No Iterations 17
time step continuity errors : sum local = 1.816046e-07, global = -1.3489316e-08, cumulative = 3.1922173e-05
smoothSolver:  Solving for nuTilda, Initial residual = 3.513532e-05, Final residual = 2.9268993e-06, No Iterations 2
ExecutionTime = 2240.59 s  ClockTime = 2241 s

Time = 4979

smoothSolver:  Solving for Ux, Initial residual = 1.4408509e-05, Final residual = 1.1917941e-06, No Iterations 2
smoothSolver:  Solving for Uy, Initial residual = 2.739855e-05, Final residual = 3.7398369e-07, No Iterations 2
GAMG:  Solving for p, Initial residual = 1.0761216e-05, Final residual = 1.0053606e-06, No Iterations 17
time step continuity errors : sum local = 1.8187027e-07, global = -1.3681717e-08, cumulative = 3.1908492e-05
smoothSolver:  Solving for nuTilda, Initial residual = 3.5119207e-05, Final residual = 2.9255309e-06, No Iterations 2
ExecutionTime = 2240.96 s  ClockTime = 2242 s

Time = 4980

smoothSolver:  Solving for Ux, Initial residual = 1.4403164e-05, Final residual = 1.191355e-06, No Iterations 2
smoothSolver:  Solving for Uy, Initial residual = 2.7385888e-05, Final residual = 3.7391443e-07, No Iterations 2
GAMG:  Solving for p, Initial residual = 1.0761753e-05, Final residual = 1.0034423e-06, No Iterations 17
time step continuity errors : sum local = 1.8154644e-07, global = -1.3484613e-08, cumulative = 3.1895007e-05
smoothSolver:  Solving for nuTilda, Initial residual = 3.51024e-05, Final residual = 2.9241554e-06, No Iterations 2
ExecutionTime = 2241.33 s  ClockTime = 2242 s

Time = 4981

smoothSolver:  Solving for Ux, Initial residual = 1.439786e-05, Final residual = 1.1909155e-06, No Iterations 2
smoothSolver:  Solving for Uy, Initial residual = 2.7378378e-05, Final residual = 3.7388421e-07, No Iterations 2
GAMG:  Solving for p, Initial residual = 1.0756365e-05, Final residual = 1.0047775e-06, No Iterations 17
time step continuity errors : sum local = 1.8181149e-07, global = -1.3676916e-08, cumulative = 3.188133e-05
smoothSolver:  Solving for nuTilda, Initial residual = 3.5086305e-05, Final residual = 2.9227885e-06, No Iterations 2
ExecutionTime = 2241.71 s  ClockTime = 2242 s

Time = 4982

smoothSolver:  Solving for Ux, Initial residual = 1.439252e-05, Final residual = 1.1904767e-06, No Iterations 2
smoothSolver:  Solving for Uy, Initial residual = 2.7365727e-05, Final residual = 3.7381497e-07, No Iterations 2
GAMG:  Solving for p, Initial residual = 1.0756906e-05, Final residual = 1.0028636e-06, No Iterations 17
time step continuity errors : sum local = 1.8148836e-07, global = -1.3479918e-08, cumulative = 3.186785e-05
smoothSolver:  Solving for nuTilda, Initial residual = 3.5069516e-05, Final residual = 2.9214145e-06, No Iterations 2
ExecutionTime = 2242.08 s  ClockTime = 2243 s

Time = 4983

smoothSolver:  Solving for Ux, Initial residual = 1.438722e-05, Final residual = 1.1900376e-06, No Iterations 2
smoothSolver:  Solving for Uy, Initial residual = 2.7358225e-05, Final residual = 3.7378472e-07, No Iterations 2
GAMG:  Solving for p, Initial residual = 1.0751504e-05, Final residual = 1.0041953e-06, No Iterations 17
time step continuity errors : sum local = 1.8175282e-07, global = -1.3672124e-08, cumulative = 3.1854178e-05
smoothSolver:  Solving for nuTilda, Initial residual = 3.5053439e-05, Final residual = 2.9200491e-06, No Iterations 2
ExecutionTime = 2242.46 s  ClockTime = 2243 s

Time = 4984

smoothSolver:  Solving for Ux, Initial residual = 1.4381884e-05, Final residual = 1.1895991e-06, No Iterations 2
smoothSolver:  Solving for Uy, Initial residual = 2.7345585e-05, Final residual = 3.737155e-07, No Iterations 2
GAMG:  Solving for p, Initial residual = 1.0752029e-05, Final residual = 1.0022858e-06, No Iterations 17
time step continuity errors : sum local = 1.8143037e-07, global = -1.3475223e-08, cumulative = 3.1840703e-05
smoothSolver:  Solving for nuTilda, Initial residual = 3.5036668e-05, Final residual = 2.9186766e-06, No Iterations 2
ExecutionTime = 2242.83 s  ClockTime = 2244 s

Time = 4985

smoothSolver:  Solving for Ux, Initial residual = 1.4376589e-05, Final residual = 1.1891604e-06, No Iterations 2
smoothSolver:  Solving for Uy, Initial residual = 2.7338091e-05, Final residual = 3.736852e-07, No Iterations 2
GAMG:  Solving for p, Initial residual = 1.0746613e-05, Final residual = 1.0036139e-06, No Iterations 17
time step continuity errors : sum local = 1.8169421e-07, global = -1.3667335e-08, cumulative = 3.1827036e-05
smoothSolver:  Solving for nuTilda, Initial residual = 3.5020608e-05, Final residual = 2.9173126e-06, No Iterations 2
ExecutionTime = 2243.2 s  ClockTime = 2244 s

Time = 4986

smoothSolver:  Solving for Ux, Initial residual = 1.4371258e-05, Final residual = 1.1887223e-06, No Iterations 2
smoothSolver:  Solving for Uy, Initial residual = 2.7325461e-05, Final residual = 3.73616e-07, No Iterations 2
GAMG:  Solving for p, Initial residual = 1.0747121e-05, Final residual = 1.0017088e-06, No Iterations 17
time step continuity errors : sum local = 1.8137244e-07, global = -1.3470546e-08, cumulative = 3.1813565e-05
smoothSolver:  Solving for nuTilda, Initial residual = 3.5003855e-05, Final residual = 2.9159417e-06, No Iterations 2
ExecutionTime = 2243.58 s  ClockTime = 2244 s

Time = 4987

smoothSolver:  Solving for Ux, Initial residual = 1.4365967e-05, Final residual = 1.1882839e-06, No Iterations 2
smoothSolver:  Solving for Uy, Initial residual = 2.7317975e-05, Final residual = 3.7358566e-07, No Iterations 2
GAMG:  Solving for p, Initial residual = 1.0741714e-05, Final residual = 1.0030333e-06, No Iterations 17
time step continuity errors : sum local = 1.8163565e-07, global = -1.3662571e-08, cumulative = 3.1799902e-05
smoothSolver:  Solving for nuTilda, Initial residual = 3.4987813e-05, Final residual = 2.9145792e-06, No Iterations 2
ExecutionTime = 2243.95 s  ClockTime = 2245 s

Time = 4988

smoothSolver:  Solving for Ux, Initial residual = 1.436064e-05, Final residual = 1.1878463e-06, No Iterations 2
smoothSolver:  Solving for Uy, Initial residual = 2.7305355e-05, Final residual = 3.7351648e-07, No Iterations 2
GAMG:  Solving for p, Initial residual = 1.0742255e-05, Final residual = 1.0011324e-06, No Iterations 17
time step continuity errors : sum local = 1.8131454e-07, global = -1.346587e-08, cumulative = 3.1786437e-05
smoothSolver:  Solving for nuTilda, Initial residual = 3.4971078e-05, Final residual = 2.9132097e-06, No Iterations 2
ExecutionTime = 2244.33 s  ClockTime = 2245 s

Time = 4989

smoothSolver:  Solving for Ux, Initial residual = 1.4355354e-05, Final residual = 1.1874082e-06, No Iterations 2
smoothSolver:  Solving for Uy, Initial residual = 2.7297877e-05, Final residual = 3.734861e-07, No Iterations 2
GAMG:  Solving for p, Initial residual = 1.07369e-05, Final residual = 1.0024532e-06, No Iterations 17
time step continuity errors : sum local = 1.8157712e-07, global = -1.3657782e-08, cumulative = 3.1772779e-05
smoothSolver:  Solving for nuTilda, Initial residual = 3.4955054e-05, Final residual = 2.9118487e-06, No Iterations 2
ExecutionTime = 2244.7 s  ClockTime = 2245 s

Time = 4990

smoothSolver:  Solving for Ux, Initial residual = 1.4350032e-05, Final residual = 1.1869709e-06, No Iterations 2
smoothSolver:  Solving for Uy, Initial residual = 2.7285268e-05, Final residual = 3.7341694e-07, No Iterations 2
GAMG:  Solving for p, Initial residual = 1.0737462e-05, Final residual = 1.0005567e-06, No Iterations 17
time step continuity errors : sum local = 1.8125666e-07, global = -1.3461202e-08, cumulative = 3.1759318e-05
smoothSolver:  Solving for nuTilda, Initial residual = 3.4938336e-05, Final residual = 2.9104807e-06, No Iterations 2
ExecutionTime = 2245.08 s  ClockTime = 2246 s

Time = 4991

smoothSolver:  Solving for Ux, Initial residual = 1.434475e-05, Final residual = 1.1865333e-06, No Iterations 2
smoothSolver:  Solving for Uy, Initial residual = 2.7277798e-05, Final residual = 3.7338653e-07, No Iterations 2
GAMG:  Solving for p, Initial residual = 1.0732098e-05, Final residual = 1.0018738e-06, No Iterations 17
time step continuity errors : sum local = 1.8151863e-07, global = -1.3653028e-08, cumulative = 3.1745665e-05
smoothSolver:  Solving for nuTilda, Initial residual = 3.492233e-05, Final residual = 2.9091212e-06, No Iterations 2
ExecutionTime = 2245.45 s  ClockTime = 2246 s

Time = 4992

smoothSolver:  Solving for Ux, Initial residual = 1.4339432e-05, Final residual = 1.1860963e-06, No Iterations 2
smoothSolver:  Solving for Uy, Initial residual = 2.7265199e-05, Final residual = 3.7331738e-07, No Iterations 2
GAMG:  Solving for p, Initial residual = 1.0732645e-05, Final residual = 9.9998145e-07, No Iterations 17
time step continuity errors : sum local = 1.811988e-07, global = -1.3456535e-08, cumulative = 3.1732208e-05
smoothSolver:  Solving for nuTilda, Initial residual = 3.4905631e-05, Final residual = 2.9077547e-06, No Iterations 2
ExecutionTime = 2245.83 s  ClockTime = 2247 s

Time = 4993

smoothSolver:  Solving for Ux, Initial residual = 1.4334155e-05, Final residual = 1.1856591e-06, No Iterations 2
smoothSolver:  Solving for Uy, Initial residual = 2.7257737e-05, Final residual = 3.7328693e-07, No Iterations 2
GAMG:  Solving for p, Initial residual = 1.0727267e-05, Final residual = 1.0012955e-06, No Iterations 17
time step continuity errors : sum local = 1.8146024e-07, global = -1.3648245e-08, cumulative = 3.171856e-05
smoothSolver:  Solving for nuTilda, Initial residual = 3.4889642e-05, Final residual = 2.9063967e-06, No Iterations 2
ExecutionTime = 2246.2 s  ClockTime = 2247 s

Time = 4994

smoothSolver:  Solving for Ux, Initial residual = 1.4328841e-05, Final residual = 1.1852225e-06, No Iterations 2
smoothSolver:  Solving for Uy, Initial residual = 2.7245149e-05, Final residual = 3.7321781e-07, No Iterations 2
GAMG:  Solving for p, Initial residual = 1.0727796e-05, Final residual = 9.9940724e-07, No Iterations 17
time step continuity errors : sum local = 1.8114106e-07, global = -1.345186e-08, cumulative = 3.1705108e-05
smoothSolver:  Solving for nuTilda, Initial residual = 3.4872961e-05, Final residual = 2.9050317e-06, No Iterations 2
ExecutionTime = 2246.57 s  ClockTime = 2247 s

Time = 4995

smoothSolver:  Solving for Ux, Initial residual = 1.4323569e-05, Final residual = 1.1847856e-06, No Iterations 2
smoothSolver:  Solving for Uy, Initial residual = 2.7237695e-05, Final residual = 3.7318732e-07, No Iterations 2
GAMG:  Solving for p, Initial residual = 1.0722407e-05, Final residual = 1.0007183e-06, No Iterations 17
time step continuity errors : sum local = 1.8140199e-07, global = -1.3643497e-08, cumulative = 3.1691464e-05
smoothSolver:  Solving for nuTilda, Initial residual = 3.485699e-05, Final residual = 2.9036751e-06, No Iterations 2
ExecutionTime = 2246.96 s  ClockTime = 2248 s

Time = 4996

smoothSolver:  Solving for Ux, Initial residual = 1.431826e-05, Final residual = 1.1843494e-06, No Iterations 2
smoothSolver:  Solving for Uy, Initial residual = 2.7225117e-05, Final residual = 3.7311822e-07, No Iterations 2
GAMG:  Solving for p, Initial residual = 1.0722935e-05, Final residual = 9.9883415e-07, No Iterations 17
time step continuity errors : sum local = 1.8108343e-07, global = -1.3447225e-08, cumulative = 3.1678017e-05
smoothSolver:  Solving for nuTilda, Initial residual = 3.4840326e-05, Final residual = 2.9023116e-06, No Iterations 2
ExecutionTime = 2247.33 s  ClockTime = 2248 s

Time = 4997

smoothSolver:  Solving for Ux, Initial residual = 1.4312992e-05, Final residual = 1.1839128e-06, No Iterations 2
smoothSolver:  Solving for Uy, Initial residual = 2.7217671e-05, Final residual = 3.730877e-07, No Iterations 2
GAMG:  Solving for p, Initial residual = 1.0717548e-05, Final residual = 1.0001419e-06, No Iterations 17
time step continuity errors : sum local = 1.8134378e-07, global = -1.3638755e-08, cumulative = 3.1664378e-05
smoothSolver:  Solving for nuTilda, Initial residual = 3.4824373e-05, Final residual = 2.9009565e-06, No Iterations 2
ExecutionTime = 2247.71 s  ClockTime = 2248 s

Time = 4998

smoothSolver:  Solving for Ux, Initial residual = 1.4307687e-05, Final residual = 1.183477e-06, No Iterations 2
smoothSolver:  Solving for Uy, Initial residual = 2.7205104e-05, Final residual = 3.7301861e-07, No Iterations 2
GAMG:  Solving for p, Initial residual = 1.071806e-05, Final residual = 9.982621e-07, No Iterations 17
time step continuity errors : sum local = 1.810259e-07, global = -1.3442576e-08, cumulative = 3.1650936e-05
smoothSolver:  Solving for nuTilda, Initial residual = 3.4807727e-05, Final residual = 2.8995945e-06, No Iterations 2
ExecutionTime = 2248.09 s  ClockTime = 2249 s

Time = 4999

smoothSolver:  Solving for Ux, Initial residual = 1.4302424e-05, Final residual = 1.1830408e-06, No Iterations 2
smoothSolver:  Solving for Uy, Initial residual = 2.7197666e-05, Final residual = 3.7298806e-07, No Iterations 2
GAMG:  Solving for p, Initial residual = 1.0712666e-05, Final residual = 9.9956655e-07, No Iterations 17
time step continuity errors : sum local = 1.8128571e-07, global = -1.3634015e-08, cumulative = 3.1637302e-05
smoothSolver:  Solving for nuTilda, Initial residual = 3.4791792e-05, Final residual = 2.8982409e-06, No Iterations 2
ExecutionTime = 2248.46 s  ClockTime = 2249 s

Time = 5000

smoothSolver:  Solving for Ux, Initial residual = 1.4297123e-05, Final residual = 1.1826053e-06, No Iterations 2
smoothSolver:  Solving for Uy, Initial residual = 2.7185109e-05, Final residual = 3.7291899e-07, No Iterations 2
GAMG:  Solving for p, Initial residual = 1.0713201e-05, Final residual = 9.9769103e-07, No Iterations 17
time step continuity errors : sum local = 1.8096849e-07, global = -1.3437942e-08, cumulative = 3.1623864e-05
smoothSolver:  Solving for nuTilda, Initial residual = 3.4775164e-05, Final residual = 2.8968803e-06, No Iterations 2
ExecutionTime = 2249.33 s  ClockTime = 2250 s

End

